data_

_audit_creation_date      'March 28, 2022'
_audit_creation_method    'Draft CIF file generated with Atomsk'
 
_chemical_name_common             ?
_chemical_melting_point           ?
_chemical_formula_iupac           'N96 C576 H672'
_chemical_formula_moiety          'N96 C576 H672'
_chemical_formula_sum             'N96 C576 H672'
_chemical_formula_weight          8940.384
_chemical_compound_source         ?
_chemical_absolute_configuration  ?
_exptl_crystal_description        'EDIT-ENTRY'
_diffrn_measurement_device_type   'EDIT-ENTRY'
 
_space_group_IT_number            1
_space_group_crystal_system       cubic
_symmetry_space_group_name_Hall   'P 1'
_symmetry_space_group_name_H-M    'P 1'
 
loop_
_space_group_symop_operation_xyz
'+x,+y,+z'
 
_cell_length_a                    24.8690
_cell_length_b                    24.8690
_cell_length_c                    24.8690
_cell_angle_alpha                 90.0000
_cell_angle_beta                  90.0000
_cell_angle_gamma                 90.0000
_cell_volume                      15380.6598
 
loop_
 _atom_site_label
 _atom_site_type_symbol
 _atom_site_fract_x
 _atom_site_fract_y
 _atom_site_fract_z
 _atom_site_occupancy
 _atom_site_thermal_displace_type
 _atom_site_B_iso_or_equiv
N1  N  0.463500  0.454860  0.277920 1.000000 Biso 8.132554
C1  C  0.370400  0.446300  0.388940 1.000000 Biso 7.564065
H1  H  0.348300  0.474900  0.379400 1.000000 Biso 9.080036
C2  C  0.415290  0.434400  0.358090 1.000000 Biso 7.082428
C3  C  0.427500  0.467600  0.310800 1.000000 Biso 7.864101
H2  H  0.408000  0.499000  0.305000 1.000000 Biso 9.474820
C4  C  0.472100  0.489300  0.231070 1.000000 Biso 8.061493
H3  H  0.446800  0.519500  0.232500 1.000000 Biso 9.711691
C5  C  0.461600  0.456700  0.179900 1.000000 Biso 13.106835
H4  H  0.424600  0.444300  0.179800 1.000000 Biso 15.712410
H5  H  0.484900  0.425500  0.179400 1.000000 Biso 15.712410
C6  C  0.472000  0.491200  0.129600 1.000000 Biso 17.844245
H6  H  0.464700  0.470400  0.097500 1.000000 Biso 21.476259
H7  H  0.448400  0.522300  0.129600 1.000000 Biso 21.476259
N2  N  0.536500  0.045140  0.777920 1.000000 Biso 8.132554
C7  C  0.629600  0.053700  0.888940 1.000000 Biso 7.564065
H8  H  0.651700  0.025100  0.879400 1.000000 Biso 9.080036
C8  C  0.584710  0.065600  0.858090 1.000000 Biso 7.082428
C9  C  0.572500  0.032400  0.810800 1.000000 Biso 7.864101
H9  H  0.592000  0.001000  0.805000 1.000000 Biso 9.474820
C10  C  0.527900  0.010700  0.731070 1.000000 Biso 8.061493
H10  H  0.553200  0.980500  0.732500 1.000000 Biso 9.711691
C11  C  0.538400  0.043300  0.679900 1.000000 Biso 13.106835
H11  H  0.575400  0.055700  0.679800 1.000000 Biso 15.712410
H12  H  0.515100  0.074500  0.679400 1.000000 Biso 15.712410
C12  C  0.528000  0.008800  0.629600 1.000000 Biso 17.844245
H13  H  0.535300  0.029600  0.597500 1.000000 Biso 21.476259
H14  H  0.551600  0.977700  0.629600 1.000000 Biso 21.476259
N3  N  0.036500  0.954860  0.722080 1.000000 Biso 8.132554
C13  C  0.129600  0.946300  0.611060 1.000000 Biso 7.564065
H15  H  0.151700  0.974900  0.620600 1.000000 Biso 9.080036
C14  C  0.084710  0.934400  0.641910 1.000000 Biso 7.082428
C15  C  0.072500  0.967600  0.689200 1.000000 Biso 7.864101
H16  H  0.092000  0.999000  0.695000 1.000000 Biso 9.474820
C16  C  0.027900  0.989300  0.768930 1.000000 Biso 8.061493
H17  H  0.053200  0.019500  0.767500 1.000000 Biso 9.711691
C17  C  0.038400  0.956700  0.820100 1.000000 Biso 13.106835
H18  H  0.075400  0.944300  0.820200 1.000000 Biso 15.712410
H19  H  0.015100  0.925500  0.820600 1.000000 Biso 15.712410
C18  C  0.028000  0.991200  0.870400 1.000000 Biso 17.844245
H20  H  0.035300  0.970400  0.902500 1.000000 Biso 21.476259
H21  H  0.051600  0.022300  0.870400 1.000000 Biso 21.476259
N4  N  0.963500  0.545140  0.222080 1.000000 Biso 8.132554
C19  C  0.870400  0.553700  0.111060 1.000000 Biso 7.564065
H22  H  0.848300  0.525100  0.120600 1.000000 Biso 9.080036
C20  C  0.915290  0.565600  0.141910 1.000000 Biso 7.082428
C21  C  0.927500  0.532400  0.189200 1.000000 Biso 7.864101
H23  H  0.908000  0.501000  0.195000 1.000000 Biso 9.474820
C22  C  0.972100  0.510700  0.268930 1.000000 Biso 8.061493
H24  H  0.946800  0.480500  0.267500 1.000000 Biso 9.711691
C23  C  0.961600  0.543300  0.320100 1.000000 Biso 13.106835
H25  H  0.924600  0.555700  0.320200 1.000000 Biso 15.712410
H26  H  0.984900  0.574500  0.320600 1.000000 Biso 15.712410
C24  C  0.972000  0.508800  0.370400 1.000000 Biso 17.844245
H27  H  0.964700  0.529600  0.402500 1.000000 Biso 21.476259
H28  H  0.948400  0.477700  0.370400 1.000000 Biso 21.476259
N5  N  0.277920  0.463500  0.454860 1.000000 Biso 8.132554
C25  C  0.388940  0.370400  0.446300 1.000000 Biso 7.564065
H29  H  0.379400  0.348300  0.474900 1.000000 Biso 9.080036
C26  C  0.358090  0.415290  0.434400 1.000000 Biso 7.082428
C27  C  0.310800  0.427500  0.467600 1.000000 Biso 7.864101
H30  H  0.305000  0.408000  0.499000 1.000000 Biso 9.474820
C28  C  0.231070  0.472100  0.489300 1.000000 Biso 8.061493
H31  H  0.232500  0.446800  0.519500 1.000000 Biso 9.711691
C29  C  0.179900  0.461600  0.456700 1.000000 Biso 13.106835
H32  H  0.179800  0.424600  0.444300 1.000000 Biso 15.712410
H33  H  0.179400  0.484900  0.425500 1.000000 Biso 15.712410
C30  C  0.129600  0.472000  0.491200 1.000000 Biso 17.844245
H34  H  0.097500  0.464700  0.470400 1.000000 Biso 21.476259
H35  H  0.129600  0.448400  0.522300 1.000000 Biso 21.476259
N6  N  0.777920  0.536500  0.045140 1.000000 Biso 8.132554
C31  C  0.888940  0.629600  0.053700 1.000000 Biso 7.564065
H36  H  0.879400  0.651700  0.025100 1.000000 Biso 9.080036
C32  C  0.858090  0.584710  0.065600 1.000000 Biso 7.082428
C33  C  0.810800  0.572500  0.032400 1.000000 Biso 7.864101
H37  H  0.805000  0.592000  0.001000 1.000000 Biso 9.474820
C34  C  0.731070  0.527900  0.010700 1.000000 Biso 8.061493
H38  H  0.732500  0.553200  0.980500 1.000000 Biso 9.711691
C35  C  0.679900  0.538400  0.043300 1.000000 Biso 13.106835
H39  H  0.679800  0.575400  0.055700 1.000000 Biso 15.712410
H40  H  0.679400  0.515100  0.074500 1.000000 Biso 15.712410
C36  C  0.629600  0.528000  0.008800 1.000000 Biso 17.844245
H41  H  0.597500  0.535300  0.029600 1.000000 Biso 21.476259
H42  H  0.629600  0.551600  0.977700 1.000000 Biso 21.476259
N7  N  0.722080  0.036500  0.954860 1.000000 Biso 8.132554
C37  C  0.611060  0.129600  0.946300 1.000000 Biso 7.564065
H43  H  0.620600  0.151700  0.974900 1.000000 Biso 9.080036
C38  C  0.641910  0.084710  0.934400 1.000000 Biso 7.082428
C39  C  0.689200  0.072500  0.967600 1.000000 Biso 7.864101
H44  H  0.695000  0.092000  0.999000 1.000000 Biso 9.474820
C40  C  0.768930  0.027900  0.989300 1.000000 Biso 8.061493
H45  H  0.767500  0.053200  0.019500 1.000000 Biso 9.711691
C41  C  0.820100  0.038400  0.956700 1.000000 Biso 13.106835
H46  H  0.820200  0.075400  0.944300 1.000000 Biso 15.712410
H47  H  0.820600  0.015100  0.925500 1.000000 Biso 15.712410
C42  C  0.870400  0.028000  0.991200 1.000000 Biso 17.844245
H48  H  0.902500  0.035300  0.970400 1.000000 Biso 21.476259
H49  H  0.870400  0.051600  0.022300 1.000000 Biso 21.476259
N8  N  0.222080  0.963500  0.545140 1.000000 Biso 8.132554
C43  C  0.111060  0.870400  0.553700 1.000000 Biso 7.564065
H50  H  0.120600  0.848300  0.525100 1.000000 Biso 9.080036
C44  C  0.141910  0.915290  0.565600 1.000000 Biso 7.082428
C45  C  0.189200  0.927500  0.532400 1.000000 Biso 7.864101
H51  H  0.195000  0.908000  0.501000 1.000000 Biso 9.474820
C46  C  0.268930  0.972100  0.510700 1.000000 Biso 8.061493
H52  H  0.267500  0.946800  0.480500 1.000000 Biso 9.711691
C47  C  0.320100  0.961600  0.543300 1.000000 Biso 13.106835
H53  H  0.320200  0.924600  0.555700 1.000000 Biso 15.712410
H54  H  0.320600  0.984900  0.574500 1.000000 Biso 15.712410
C48  C  0.370400  0.972000  0.508800 1.000000 Biso 17.844245
H55  H  0.402500  0.964700  0.529600 1.000000 Biso 21.476259
H56  H  0.370400  0.948400  0.477700 1.000000 Biso 21.476259
N9  N  0.954860  0.722080  0.036500 1.000000 Biso 8.132554
C49  C  0.946300  0.611060  0.129600 1.000000 Biso 7.564065
H57  H  0.974900  0.620600  0.151700 1.000000 Biso 9.080036
C50  C  0.934400  0.641910  0.084710 1.000000 Biso 7.082428
C51  C  0.967600  0.689200  0.072500 1.000000 Biso 7.864101
H58  H  0.999000  0.695000  0.092000 1.000000 Biso 9.474820
C52  C  0.989300  0.768930  0.027900 1.000000 Biso 8.061493
H59  H  0.019500  0.767500  0.053200 1.000000 Biso 9.711691
C53  C  0.956700  0.820100  0.038400 1.000000 Biso 13.106835
H60  H  0.944300  0.820200  0.075400 1.000000 Biso 15.712410
H61  H  0.925500  0.820600  0.015100 1.000000 Biso 15.712410
C54  C  0.991200  0.870400  0.028000 1.000000 Biso 17.844245
H62  H  0.970400  0.902500  0.035300 1.000000 Biso 21.476259
H63  H  0.022300  0.870400  0.051600 1.000000 Biso 21.476259
N10  N  0.545140  0.222080  0.963500 1.000000 Biso 8.132554
C55  C  0.553700  0.111060  0.870400 1.000000 Biso 7.564065
H64  H  0.525100  0.120600  0.848300 1.000000 Biso 9.080036
C56  C  0.565600  0.141910  0.915290 1.000000 Biso 7.082428
C57  C  0.532400  0.189200  0.927500 1.000000 Biso 7.864101
H65  H  0.501000  0.195000  0.908000 1.000000 Biso 9.474820
C58  C  0.510700  0.268930  0.972100 1.000000 Biso 8.061493
H66  H  0.480500  0.267500  0.946800 1.000000 Biso 9.711691
C59  C  0.543300  0.320100  0.961600 1.000000 Biso 13.106835
H67  H  0.555700  0.320200  0.924600 1.000000 Biso 15.712410
H68  H  0.574500  0.320600  0.984900 1.000000 Biso 15.712410
C60  C  0.508800  0.370400  0.972000 1.000000 Biso 17.844245
H69  H  0.529600  0.402500  0.964700 1.000000 Biso 21.476259
H70  H  0.477700  0.370400  0.948400 1.000000 Biso 21.476259
N11  N  0.454860  0.277920  0.463500 1.000000 Biso 8.132554
C61  C  0.446300  0.388940  0.370400 1.000000 Biso 7.564065
H71  H  0.474900  0.379400  0.348300 1.000000 Biso 9.080036
C62  C  0.434400  0.358090  0.415290 1.000000 Biso 7.082428
C63  C  0.467600  0.310800  0.427500 1.000000 Biso 7.864101
H72  H  0.499000  0.305000  0.408000 1.000000 Biso 9.474820
C64  C  0.489300  0.231070  0.472100 1.000000 Biso 8.061493
H73  H  0.519500  0.232500  0.446800 1.000000 Biso 9.711691
C65  C  0.456700  0.179900  0.461600 1.000000 Biso 13.106835
H74  H  0.444300  0.179800  0.424600 1.000000 Biso 15.712410
H75  H  0.425500  0.179400  0.484900 1.000000 Biso 15.712410
C66  C  0.491200  0.129600  0.472000 1.000000 Biso 17.844245
H76  H  0.470400  0.097500  0.464700 1.000000 Biso 21.476259
H77  H  0.522300  0.129600  0.448400 1.000000 Biso 21.476259
N12  N  0.045140  0.777920  0.536500 1.000000 Biso 8.132554
C67  C  0.053700  0.888940  0.629600 1.000000 Biso 7.564065
H78  H  0.025100  0.879400  0.651700 1.000000 Biso 9.080036
C68  C  0.065600  0.858090  0.584710 1.000000 Biso 7.082428
C69  C  0.032400  0.810800  0.572500 1.000000 Biso 7.864101
H79  H  0.001000  0.805000  0.592000 1.000000 Biso 9.474820
C70  C  0.010700  0.731070  0.527900 1.000000 Biso 8.061493
H80  H  0.980500  0.732500  0.553200 1.000000 Biso 9.711691
C71  C  0.043300  0.679900  0.538400 1.000000 Biso 13.106835
H81  H  0.055700  0.679800  0.575400 1.000000 Biso 15.712410
H82  H  0.074500  0.679400  0.515100 1.000000 Biso 15.712410
C72  C  0.008800  0.629600  0.528000 1.000000 Biso 17.844245
H83  H  0.029600  0.597500  0.535300 1.000000 Biso 21.476259
H84  H  0.977700  0.629600  0.551600 1.000000 Biso 21.476259
N13  N  0.204860  0.713500  0.472080 1.000000 Biso 8.132554
C73  C  0.196300  0.620400  0.361060 1.000000 Biso 7.564065
H85  H  0.224900  0.598300  0.370600 1.000000 Biso 9.080036
C74  C  0.184400  0.665290  0.391910 1.000000 Biso 7.082428
C75  C  0.217600  0.677500  0.439200 1.000000 Biso 7.864101
H86  H  0.249000  0.658000  0.445000 1.000000 Biso 9.474820
C76  C  0.239300  0.722100  0.518930 1.000000 Biso 8.061493
H87  H  0.269500  0.696800  0.517500 1.000000 Biso 9.711691
C77  C  0.206700  0.711600  0.570100 1.000000 Biso 13.106835
H88  H  0.194300  0.674600  0.570200 1.000000 Biso 15.712410
H89  H  0.175500  0.734900  0.570600 1.000000 Biso 15.712410
C78  C  0.241200  0.722000  0.620400 1.000000 Biso 17.844245
H90  H  0.220400  0.714700  0.652500 1.000000 Biso 21.476259
H91  H  0.272300  0.698400  0.620400 1.000000 Biso 21.476259
N14  N  0.795140  0.786500  0.972080 1.000000 Biso 8.132554
C79  C  0.803700  0.879600  0.861060 1.000000 Biso 7.564065
H92  H  0.775100  0.901700  0.870600 1.000000 Biso 9.080036
C80  C  0.815600  0.834710  0.891910 1.000000 Biso 7.082428
C81  C  0.782400  0.822500  0.939200 1.000000 Biso 7.864101
H93  H  0.751000  0.842000  0.945000 1.000000 Biso 9.474820
C82  C  0.760700  0.777900  0.018930 1.000000 Biso 8.061493
H94  H  0.730500  0.803200  0.017500 1.000000 Biso 9.711691
C83  C  0.793300  0.788400  0.070100 1.000000 Biso 13.106835
H95  H  0.805700  0.825400  0.070200 1.000000 Biso 15.712410
H96  H  0.824500  0.765100  0.070600 1.000000 Biso 15.712410
C84  C  0.758800  0.778000  0.120400 1.000000 Biso 17.844245
H97  H  0.779600  0.785300  0.152500 1.000000 Biso 21.476259
H98  H  0.727700  0.801600  0.120400 1.000000 Biso 21.476259
N15  N  0.704860  0.286500  0.027920 1.000000 Biso 8.132554
C85  C  0.696300  0.379600  0.138940 1.000000 Biso 7.564065
H99  H  0.724900  0.401700  0.129400 1.000000 Biso 9.080036
C86  C  0.684400  0.334710  0.108090 1.000000 Biso 7.082428
C87  C  0.717600  0.322500  0.060800 1.000000 Biso 7.864101
H100  H  0.749000  0.342000  0.055000 1.000000 Biso 9.474820
C88  C  0.739300  0.277900  0.981070 1.000000 Biso 8.061493
H101  H  0.769500  0.303200  0.982500 1.000000 Biso 9.711691
C89  C  0.706700  0.288400  0.929900 1.000000 Biso 13.106835
H102  H  0.694300  0.325400  0.929800 1.000000 Biso 15.712410
H103  H  0.675500  0.265100  0.929400 1.000000 Biso 15.712410
C90  C  0.741200  0.278000  0.879600 1.000000 Biso 17.844245
H104  H  0.720400  0.285300  0.847500 1.000000 Biso 21.476259
H105  H  0.772300  0.301600  0.879600 1.000000 Biso 21.476259
N16  N  0.295140  0.213500  0.527920 1.000000 Biso 8.132554
C91  C  0.303700  0.120400  0.638940 1.000000 Biso 7.564065
H106  H  0.275100  0.098300  0.629400 1.000000 Biso 9.080036
C92  C  0.315600  0.165290  0.608090 1.000000 Biso 7.082428
C93  C  0.282400  0.177500  0.560800 1.000000 Biso 7.864101
H107  H  0.251000  0.158000  0.555000 1.000000 Biso 9.474820
C94  C  0.260700  0.222100  0.481070 1.000000 Biso 8.061493
H108  H  0.230500  0.196800  0.482500 1.000000 Biso 9.711691
C95  C  0.293300  0.211600  0.429900 1.000000 Biso 13.106835
H109  H  0.305700  0.174600  0.429800 1.000000 Biso 15.712410
H110  H  0.324500  0.234900  0.429400 1.000000 Biso 15.712410
C96  C  0.258800  0.222000  0.379600 1.000000 Biso 17.844245
H111  H  0.279600  0.214700  0.347500 1.000000 Biso 21.476259
H112  H  0.227700  0.198400  0.379600 1.000000 Biso 21.476259
N17  N  0.213500  0.527920  0.295140 1.000000 Biso 8.132554
C97  C  0.120400  0.638940  0.303700 1.000000 Biso 7.564065
H113  H  0.098300  0.629400  0.275100 1.000000 Biso 9.080036
C98  C  0.165290  0.608090  0.315600 1.000000 Biso 7.082428
C99  C  0.177500  0.560800  0.282400 1.000000 Biso 7.864101
H114  H  0.158000  0.555000  0.251000 1.000000 Biso 9.474820
C100  C  0.222100  0.481070  0.260700 1.000000 Biso 8.061493
H115  H  0.196800  0.482500  0.230500 1.000000 Biso 9.711691
C101  C  0.211600  0.429900  0.293300 1.000000 Biso 13.106835
H116  H  0.174600  0.429800  0.305700 1.000000 Biso 15.712410
H117  H  0.234900  0.429400  0.324500 1.000000 Biso 15.712410
C102  C  0.222000  0.379600  0.258800 1.000000 Biso 17.844245
H118  H  0.214700  0.347500  0.279600 1.000000 Biso 21.476259
H119  H  0.198400  0.379600  0.227700 1.000000 Biso 21.476259
N18  N  0.286500  0.027920  0.704860 1.000000 Biso 8.132554
C103  C  0.379600  0.138940  0.696300 1.000000 Biso 7.564065
H120  H  0.401700  0.129400  0.724900 1.000000 Biso 9.080036
C104  C  0.334710  0.108090  0.684400 1.000000 Biso 7.082428
C105  C  0.322500  0.060800  0.717600 1.000000 Biso 7.864101
H121  H  0.342000  0.055000  0.749000 1.000000 Biso 9.474820
C106  C  0.277900  0.981070  0.739300 1.000000 Biso 8.061493
H122  H  0.303200  0.982500  0.769500 1.000000 Biso 9.711691
C107  C  0.288400  0.929900  0.706700 1.000000 Biso 13.106835
H123  H  0.325400  0.929800  0.694300 1.000000 Biso 15.712410
H124  H  0.265100  0.929400  0.675500 1.000000 Biso 15.712410
C108  C  0.278000  0.879600  0.741200 1.000000 Biso 17.844245
H125  H  0.285300  0.847500  0.720400 1.000000 Biso 21.476259
H126  H  0.301600  0.879600  0.772300 1.000000 Biso 21.476259
N19  N  0.786500  0.972080  0.795140 1.000000 Biso 8.132554
C109  C  0.879600  0.861060  0.803700 1.000000 Biso 7.564065
H127  H  0.901700  0.870600  0.775100 1.000000 Biso 9.080036
C110  C  0.834710  0.891910  0.815600 1.000000 Biso 7.082428
C111  C  0.822500  0.939200  0.782400 1.000000 Biso 7.864101
H128  H  0.842000  0.945000  0.751000 1.000000 Biso 9.474820
C112  C  0.777900  0.018930  0.760700 1.000000 Biso 8.061493
H129  H  0.803200  0.017500  0.730500 1.000000 Biso 9.711691
C113  C  0.788400  0.070100  0.793300 1.000000 Biso 13.106835
H130  H  0.825400  0.070200  0.805700 1.000000 Biso 15.712410
H131  H  0.765100  0.070600  0.824500 1.000000 Biso 15.712410
C114  C  0.778000  0.120400  0.758800 1.000000 Biso 17.844245
H132  H  0.785300  0.152500  0.779600 1.000000 Biso 21.476259
H133  H  0.801600  0.120400  0.727700 1.000000 Biso 21.476259
N20  N  0.713500  0.472080  0.204860 1.000000 Biso 8.132554
C115  C  0.620400  0.361060  0.196300 1.000000 Biso 7.564065
H134  H  0.598300  0.370600  0.224900 1.000000 Biso 9.080036
C116  C  0.665290  0.391910  0.184400 1.000000 Biso 7.082428
C117  C  0.677500  0.439200  0.217600 1.000000 Biso 7.864101
H135  H  0.658000  0.445000  0.249000 1.000000 Biso 9.474820
C118  C  0.722100  0.518930  0.239300 1.000000 Biso 8.061493
H136  H  0.696800  0.517500  0.269500 1.000000 Biso 9.711691
C119  C  0.711600  0.570100  0.206700 1.000000 Biso 13.106835
H137  H  0.674600  0.570200  0.194300 1.000000 Biso 15.712410
H138  H  0.734900  0.570600  0.175500 1.000000 Biso 15.712410
C120  C  0.722000  0.620400  0.241200 1.000000 Biso 17.844245
H139  H  0.714700  0.652500  0.220400 1.000000 Biso 21.476259
H140  H  0.698400  0.620400  0.272300 1.000000 Biso 21.476259
N21  N  0.472080  0.204860  0.713500 1.000000 Biso 8.132554
C121  C  0.361060  0.196300  0.620400 1.000000 Biso 7.564065
H141  H  0.370600  0.224900  0.598300 1.000000 Biso 9.080036
C122  C  0.391910  0.184400  0.665290 1.000000 Biso 7.082428
C123  C  0.439200  0.217600  0.677500 1.000000 Biso 7.864101
H142  H  0.445000  0.249000  0.658000 1.000000 Biso 9.474820
C124  C  0.518930  0.239300  0.722100 1.000000 Biso 8.061493
H143  H  0.517500  0.269500  0.696800 1.000000 Biso 9.711691
C125  C  0.570100  0.206700  0.711600 1.000000 Biso 13.106835
H144  H  0.570200  0.194300  0.674600 1.000000 Biso 15.712410
H145  H  0.570600  0.175500  0.734900 1.000000 Biso 15.712410
C126  C  0.620400  0.241200  0.722000 1.000000 Biso 17.844245
H146  H  0.652500  0.220400  0.714700 1.000000 Biso 21.476259
H147  H  0.620400  0.272300  0.698400 1.000000 Biso 21.476259
N22  N  0.972080  0.795140  0.786500 1.000000 Biso 8.132554
C127  C  0.861060  0.803700  0.879600 1.000000 Biso 7.564065
H148  H  0.870600  0.775100  0.901700 1.000000 Biso 9.080036
C128  C  0.891910  0.815600  0.834710 1.000000 Biso 7.082428
C129  C  0.939200  0.782400  0.822500 1.000000 Biso 7.864101
H149  H  0.945000  0.751000  0.842000 1.000000 Biso 9.474820
C130  C  0.018930  0.760700  0.777900 1.000000 Biso 8.061493
H150  H  0.017500  0.730500  0.803200 1.000000 Biso 9.711691
C131  C  0.070100  0.793300  0.788400 1.000000 Biso 13.106835
H151  H  0.070200  0.805700  0.825400 1.000000 Biso 15.712410
H152  H  0.070600  0.824500  0.765100 1.000000 Biso 15.712410
C132  C  0.120400  0.758800  0.778000 1.000000 Biso 17.844245
H153  H  0.152500  0.779600  0.785300 1.000000 Biso 21.476259
H154  H  0.120400  0.727700  0.801600 1.000000 Biso 21.476259
N23  N  0.027920  0.704860  0.286500 1.000000 Biso 8.132554
C133  C  0.138940  0.696300  0.379600 1.000000 Biso 7.564065
H155  H  0.129400  0.724900  0.401700 1.000000 Biso 9.080036
C134  C  0.108090  0.684400  0.334710 1.000000 Biso 7.082428
C135  C  0.060800  0.717600  0.322500 1.000000 Biso 7.864101
H156  H  0.055000  0.749000  0.342000 1.000000 Biso 9.474820
C136  C  0.981070  0.739300  0.277900 1.000000 Biso 8.061493
H157  H  0.982500  0.769500  0.303200 1.000000 Biso 9.711691
C137  C  0.929900  0.706700  0.288400 1.000000 Biso 13.106835
H158  H  0.929800  0.694300  0.325400 1.000000 Biso 15.712410
H159  H  0.929400  0.675500  0.265100 1.000000 Biso 15.712410
C138  C  0.879600  0.741200  0.278000 1.000000 Biso 17.844245
H160  H  0.847500  0.720400  0.285300 1.000000 Biso 21.476259
H161  H  0.879600  0.772300  0.301600 1.000000 Biso 21.476259
N24  N  0.527920  0.295140  0.213500 1.000000 Biso 8.132554
C139  C  0.638940  0.303700  0.120400 1.000000 Biso 7.564065
H162  H  0.629400  0.275100  0.098300 1.000000 Biso 9.080036
C140  C  0.608090  0.315600  0.165290 1.000000 Biso 7.082428
C141  C  0.560800  0.282400  0.177500 1.000000 Biso 7.864101
H163  H  0.555000  0.251000  0.158000 1.000000 Biso 9.474820
C142  C  0.481070  0.260700  0.222100 1.000000 Biso 8.061493
H164  H  0.482500  0.230500  0.196800 1.000000 Biso 9.711691
C143  C  0.429900  0.293300  0.211600 1.000000 Biso 13.106835
H165  H  0.429800  0.305700  0.174600 1.000000 Biso 15.712410
H166  H  0.429400  0.324500  0.234900 1.000000 Biso 15.712410
C144  C  0.379600  0.258800  0.222000 1.000000 Biso 17.844245
H167  H  0.347500  0.279600  0.214700 1.000000 Biso 21.476259
H168  H  0.379600  0.227700  0.198400 1.000000 Biso 21.476259
N25  N  0.463500  0.954860  0.777920 1.000000 Biso 8.132554
C145  C  0.370400  0.946300  0.888940 1.000000 Biso 7.564065
H169  H  0.348300  0.974900  0.879400 1.000000 Biso 9.080036
C146  C  0.415290  0.934400  0.858090 1.000000 Biso 7.082428
C147  C  0.427500  0.967600  0.810800 1.000000 Biso 7.864101
H170  H  0.408000  0.999000  0.805000 1.000000 Biso 9.474820
C148  C  0.472100  0.989300  0.731070 1.000000 Biso 8.061493
H171  H  0.446800  0.019500  0.732500 1.000000 Biso 9.711691
C149  C  0.461600  0.956700  0.679900 1.000000 Biso 13.106835
H172  H  0.424600  0.944300  0.679800 1.000000 Biso 15.712410
H173  H  0.484900  0.925500  0.679400 1.000000 Biso 15.712410
C150  C  0.472000  0.991200  0.629600 1.000000 Biso 17.844245
H174  H  0.464700  0.970400  0.597500 1.000000 Biso 21.476259
H175  H  0.448400  0.022300  0.629600 1.000000 Biso 21.476259
N26  N  0.536500  0.545140  0.277920 1.000000 Biso 8.132554
C151  C  0.629600  0.553700  0.388940 1.000000 Biso 7.564065
H176  H  0.651700  0.525100  0.379400 1.000000 Biso 9.080036
C152  C  0.584710  0.565600  0.358090 1.000000 Biso 7.082428
C153  C  0.572500  0.532400  0.310800 1.000000 Biso 7.864101
H177  H  0.592000  0.501000  0.305000 1.000000 Biso 9.474820
C154  C  0.527900  0.510700  0.231070 1.000000 Biso 8.061493
H178  H  0.553200  0.480500  0.232500 1.000000 Biso 9.711691
C155  C  0.538400  0.543300  0.179900 1.000000 Biso 13.106835
H179  H  0.575400  0.555700  0.179800 1.000000 Biso 15.712410
H180  H  0.515100  0.574500  0.179400 1.000000 Biso 15.712410
C156  C  0.528000  0.508800  0.129600 1.000000 Biso 17.844245
H181  H  0.535300  0.529600  0.097500 1.000000 Biso 21.476259
H182  H  0.551600  0.477700  0.129600 1.000000 Biso 21.476259
N27  N  0.036500  0.454860  0.222080 1.000000 Biso 8.132554
C157  C  0.129600  0.446300  0.111060 1.000000 Biso 7.564065
H183  H  0.151700  0.474900  0.120600 1.000000 Biso 9.080036
C158  C  0.084710  0.434400  0.141910 1.000000 Biso 7.082428
C159  C  0.072500  0.467600  0.189200 1.000000 Biso 7.864101
H184  H  0.092000  0.499000  0.195000 1.000000 Biso 9.474820
C160  C  0.027900  0.489300  0.268930 1.000000 Biso 8.061493
H185  H  0.053200  0.519500  0.267500 1.000000 Biso 9.711691
C161  C  0.038400  0.456700  0.320100 1.000000 Biso 13.106835
H186  H  0.075400  0.444300  0.320200 1.000000 Biso 15.712410
H187  H  0.015100  0.425500  0.320600 1.000000 Biso 15.712410
C162  C  0.028000  0.491200  0.370400 1.000000 Biso 17.844245
H188  H  0.035300  0.470400  0.402500 1.000000 Biso 21.476259
H189  H  0.051600  0.522300  0.370400 1.000000 Biso 21.476259
N28  N  0.963500  0.045140  0.722080 1.000000 Biso 8.132554
C163  C  0.870400  0.053700  0.611060 1.000000 Biso 7.564065
H190  H  0.848300  0.025100  0.620600 1.000000 Biso 9.080036
C164  C  0.915290  0.065600  0.641910 1.000000 Biso 7.082428
C165  C  0.927500  0.032400  0.689200 1.000000 Biso 7.864101
H191  H  0.908000  0.001000  0.695000 1.000000 Biso 9.474820
C166  C  0.972100  0.010700  0.768930 1.000000 Biso 8.061493
H192  H  0.946800  0.980500  0.767500 1.000000 Biso 9.711691
C167  C  0.961600  0.043300  0.820100 1.000000 Biso 13.106835
H193  H  0.924600  0.055700  0.820200 1.000000 Biso 15.712410
H194  H  0.984900  0.074500  0.820600 1.000000 Biso 15.712410
C168  C  0.972000  0.008800  0.870400 1.000000 Biso 17.844245
H195  H  0.964700  0.029600  0.902500 1.000000 Biso 21.476259
H196  H  0.948400  0.977700  0.870400 1.000000 Biso 21.476259
N29  N  0.277920  0.963500  0.954860 1.000000 Biso 8.132554
C169  C  0.388940  0.870400  0.946300 1.000000 Biso 7.564065
H197  H  0.379400  0.848300  0.974900 1.000000 Biso 9.080036
C170  C  0.358090  0.915290  0.934400 1.000000 Biso 7.082428
C171  C  0.310800  0.927500  0.967600 1.000000 Biso 7.864101
H198  H  0.305000  0.908000  0.999000 1.000000 Biso 9.474820
C172  C  0.231070  0.972100  0.989300 1.000000 Biso 8.061493
H199  H  0.232500  0.946800  0.019500 1.000000 Biso 9.711691
C173  C  0.179900  0.961600  0.956700 1.000000 Biso 13.106835
H200  H  0.179800  0.924600  0.944300 1.000000 Biso 15.712410
H201  H  0.179400  0.984900  0.925500 1.000000 Biso 15.712410
C174  C  0.129600  0.972000  0.991200 1.000000 Biso 17.844245
H202  H  0.097500  0.964700  0.970400 1.000000 Biso 21.476259
H203  H  0.129600  0.948400  0.022300 1.000000 Biso 21.476259
N30  N  0.777920  0.036500  0.545140 1.000000 Biso 8.132554
C175  C  0.888940  0.129600  0.553700 1.000000 Biso 7.564065
H204  H  0.879400  0.151700  0.525100 1.000000 Biso 9.080036
C176  C  0.858090  0.084710  0.565600 1.000000 Biso 7.082428
C177  C  0.810800  0.072500  0.532400 1.000000 Biso 7.864101
H205  H  0.805000  0.092000  0.501000 1.000000 Biso 9.474820
C178  C  0.731070  0.027900  0.510700 1.000000 Biso 8.061493
H206  H  0.732500  0.053200  0.480500 1.000000 Biso 9.711691
C179  C  0.679900  0.038400  0.543300 1.000000 Biso 13.106835
H207  H  0.679800  0.075400  0.555700 1.000000 Biso 15.712410
H208  H  0.679400  0.015100  0.574500 1.000000 Biso 15.712410
C180  C  0.629600  0.028000  0.508800 1.000000 Biso 17.844245
H209  H  0.597500  0.035300  0.529600 1.000000 Biso 21.476259
H210  H  0.629600  0.051600  0.477700 1.000000 Biso 21.476259
N31  N  0.722080  0.536500  0.454860 1.000000 Biso 8.132554
C181  C  0.611060  0.629600  0.446300 1.000000 Biso 7.564065
H211  H  0.620600  0.651700  0.474900 1.000000 Biso 9.080036
C182  C  0.641910  0.584710  0.434400 1.000000 Biso 7.082428
C183  C  0.689200  0.572500  0.467600 1.000000 Biso 7.864101
H212  H  0.695000  0.592000  0.499000 1.000000 Biso 9.474820
C184  C  0.768930  0.527900  0.489300 1.000000 Biso 8.061493
H213  H  0.767500  0.553200  0.519500 1.000000 Biso 9.711691
C185  C  0.820100  0.538400  0.456700 1.000000 Biso 13.106835
H214  H  0.820200  0.575400  0.444300 1.000000 Biso 15.712410
H215  H  0.820600  0.515100  0.425500 1.000000 Biso 15.712410
C186  C  0.870400  0.528000  0.491200 1.000000 Biso 17.844245
H216  H  0.902500  0.535300  0.470400 1.000000 Biso 21.476259
H217  H  0.870400  0.551600  0.522300 1.000000 Biso 21.476259
N32  N  0.222080  0.463500  0.045140 1.000000 Biso 8.132554
C187  C  0.111060  0.370400  0.053700 1.000000 Biso 7.564065
H218  H  0.120600  0.348300  0.025100 1.000000 Biso 9.080036
C188  C  0.141910  0.415290  0.065600 1.000000 Biso 7.082428
C189  C  0.189200  0.427500  0.032400 1.000000 Biso 7.864101
H219  H  0.195000  0.408000  0.001000 1.000000 Biso 9.474820
C190  C  0.268930  0.472100  0.010700 1.000000 Biso 8.061493
H220  H  0.267500  0.446800  0.980500 1.000000 Biso 9.711691
C191  C  0.320100  0.461600  0.043300 1.000000 Biso 13.106835
H221  H  0.320200  0.424600  0.055700 1.000000 Biso 15.712410
H222  H  0.320600  0.484900  0.074500 1.000000 Biso 15.712410
C192  C  0.370400  0.472000  0.008800 1.000000 Biso 17.844245
H223  H  0.402500  0.464700  0.029600 1.000000 Biso 21.476259
H224  H  0.370400  0.448400  0.977700 1.000000 Biso 21.476259
N33  N  0.954860  0.222080  0.536500 1.000000 Biso 8.132554
C193  C  0.946300  0.111060  0.629600 1.000000 Biso 7.564065
H225  H  0.974900  0.120600  0.651700 1.000000 Biso 9.080036
C194  C  0.934400  0.141910  0.584710 1.000000 Biso 7.082428
C195  C  0.967600  0.189200  0.572500 1.000000 Biso 7.864101
H226  H  0.999000  0.195000  0.592000 1.000000 Biso 9.474820
C196  C  0.989300  0.268930  0.527900 1.000000 Biso 8.061493
H227  H  0.019500  0.267500  0.553200 1.000000 Biso 9.711691
C197  C  0.956700  0.320100  0.538400 1.000000 Biso 13.106835
H228  H  0.944300  0.320200  0.575400 1.000000 Biso 15.712410
H229  H  0.925500  0.320600  0.515100 1.000000 Biso 15.712410
C198  C  0.991200  0.370400  0.528000 1.000000 Biso 17.844245
H230  H  0.970400  0.402500  0.535300 1.000000 Biso 21.476259
H231  H  0.022300  0.370400  0.551600 1.000000 Biso 21.476259
N34  N  0.545140  0.722080  0.463500 1.000000 Biso 8.132554
C199  C  0.553700  0.611060  0.370400 1.000000 Biso 7.564065
H232  H  0.525100  0.620600  0.348300 1.000000 Biso 9.080036
C200  C  0.565600  0.641910  0.415290 1.000000 Biso 7.082428
C201  C  0.532400  0.689200  0.427500 1.000000 Biso 7.864101
H233  H  0.501000  0.695000  0.408000 1.000000 Biso 9.474820
C202  C  0.510700  0.768930  0.472100 1.000000 Biso 8.061493
H234  H  0.480500  0.767500  0.446800 1.000000 Biso 9.711691
C203  C  0.543300  0.820100  0.461600 1.000000 Biso 13.106835
H235  H  0.555700  0.820200  0.424600 1.000000 Biso 15.712410
H236  H  0.574500  0.820600  0.484900 1.000000 Biso 15.712410
C204  C  0.508800  0.870400  0.472000 1.000000 Biso 17.844245
H237  H  0.529600  0.902500  0.464700 1.000000 Biso 21.476259
H238  H  0.477700  0.870400  0.448400 1.000000 Biso 21.476259
N35  N  0.454860  0.777920  0.963500 1.000000 Biso 8.132554
C205  C  0.446300  0.888940  0.870400 1.000000 Biso 7.564065
H239  H  0.474900  0.879400  0.848300 1.000000 Biso 9.080036
C206  C  0.434400  0.858090  0.915290 1.000000 Biso 7.082428
C207  C  0.467600  0.810800  0.927500 1.000000 Biso 7.864101
H240  H  0.499000  0.805000  0.908000 1.000000 Biso 9.474820
C208  C  0.489300  0.731070  0.972100 1.000000 Biso 8.061493
H241  H  0.519500  0.732500  0.946800 1.000000 Biso 9.711691
C209  C  0.456700  0.679900  0.961600 1.000000 Biso 13.106835
H242  H  0.444300  0.679800  0.924600 1.000000 Biso 15.712410
H243  H  0.425500  0.679400  0.984900 1.000000 Biso 15.712410
C210  C  0.491200  0.629600  0.972000 1.000000 Biso 17.844245
H244  H  0.470400  0.597500  0.964700 1.000000 Biso 21.476259
H245  H  0.522300  0.629600  0.948400 1.000000 Biso 21.476259
N36  N  0.045140  0.277920  0.036500 1.000000 Biso 8.132554
C211  C  0.053700  0.388940  0.129600 1.000000 Biso 7.564065
H246  H  0.025100  0.379400  0.151700 1.000000 Biso 9.080036
C212  C  0.065600  0.358090  0.084710 1.000000 Biso 7.082428
C213  C  0.032400  0.310800  0.072500 1.000000 Biso 7.864101
H247  H  0.001000  0.305000  0.092000 1.000000 Biso 9.474820
C214  C  0.010700  0.231070  0.027900 1.000000 Biso 8.061493
H248  H  0.980500  0.232500  0.053200 1.000000 Biso 9.711691
C215  C  0.043300  0.179900  0.038400 1.000000 Biso 13.106835
H249  H  0.055700  0.179800  0.075400 1.000000 Biso 15.712410
H250  H  0.074500  0.179400  0.015100 1.000000 Biso 15.712410
C216  C  0.008800  0.129600  0.028000 1.000000 Biso 17.844245
H251  H  0.029600  0.097500  0.035300 1.000000 Biso 21.476259
H252  H  0.977700  0.129600  0.051600 1.000000 Biso 21.476259
N37  N  0.204860  0.213500  0.972080 1.000000 Biso 8.132554
C217  C  0.196300  0.120400  0.861060 1.000000 Biso 7.564065
H253  H  0.224900  0.098300  0.870600 1.000000 Biso 9.080036
C218  C  0.184400  0.165290  0.891910 1.000000 Biso 7.082428
C219  C  0.217600  0.177500  0.939200 1.000000 Biso 7.864101
H254  H  0.249000  0.158000  0.945000 1.000000 Biso 9.474820
C220  C  0.239300  0.222100  0.018930 1.000000 Biso 8.061493
H255  H  0.269500  0.196800  0.017500 1.000000 Biso 9.711691
C221  C  0.206700  0.211600  0.070100 1.000000 Biso 13.106835
H256  H  0.194300  0.174600  0.070200 1.000000 Biso 15.712410
H257  H  0.175500  0.234900  0.070600 1.000000 Biso 15.712410
C222  C  0.241200  0.222000  0.120400 1.000000 Biso 17.844245
H258  H  0.220400  0.214700  0.152500 1.000000 Biso 21.476259
H259  H  0.272300  0.198400  0.120400 1.000000 Biso 21.476259
N38  N  0.795140  0.286500  0.472080 1.000000 Biso 8.132554
C223  C  0.803700  0.379600  0.361060 1.000000 Biso 7.564065
H260  H  0.775100  0.401700  0.370600 1.000000 Biso 9.080036
C224  C  0.815600  0.334710  0.391910 1.000000 Biso 7.082428
C225  C  0.782400  0.322500  0.439200 1.000000 Biso 7.864101
H261  H  0.751000  0.342000  0.445000 1.000000 Biso 9.474820
C226  C  0.760700  0.277900  0.518930 1.000000 Biso 8.061493
H262  H  0.730500  0.303200  0.517500 1.000000 Biso 9.711691
C227  C  0.793300  0.288400  0.570100 1.000000 Biso 13.106835
H263  H  0.805700  0.325400  0.570200 1.000000 Biso 15.712410
H264  H  0.824500  0.265100  0.570600 1.000000 Biso 15.712410
C228  C  0.758800  0.278000  0.620400 1.000000 Biso 17.844245
H265  H  0.779600  0.285300  0.652500 1.000000 Biso 21.476259
H266  H  0.727700  0.301600  0.620400 1.000000 Biso 21.476259
N39  N  0.704860  0.786500  0.527920 1.000000 Biso 8.132554
C229  C  0.696300  0.879600  0.638940 1.000000 Biso 7.564065
H267  H  0.724900  0.901700  0.629400 1.000000 Biso 9.080036
C230  C  0.684400  0.834710  0.608090 1.000000 Biso 7.082428
C231  C  0.717600  0.822500  0.560800 1.000000 Biso 7.864101
H268  H  0.749000  0.842000  0.555000 1.000000 Biso 9.474820
C232  C  0.739300  0.777900  0.481070 1.000000 Biso 8.061493
H269  H  0.769500  0.803200  0.482500 1.000000 Biso 9.711691
C233  C  0.706700  0.788400  0.429900 1.000000 Biso 13.106835
H270  H  0.694300  0.825400  0.429800 1.000000 Biso 15.712410
H271  H  0.675500  0.765100  0.429400 1.000000 Biso 15.712410
C234  C  0.741200  0.778000  0.379600 1.000000 Biso 17.844245
H272  H  0.720400  0.785300  0.347500 1.000000 Biso 21.476259
H273  H  0.772300  0.801600  0.379600 1.000000 Biso 21.476259
N40  N  0.295140  0.713500  0.027920 1.000000 Biso 8.132554
C235  C  0.303700  0.620400  0.138940 1.000000 Biso 7.564065
H274  H  0.275100  0.598300  0.129400 1.000000 Biso 9.080036
C236  C  0.315600  0.665290  0.108090 1.000000 Biso 7.082428
C237  C  0.282400  0.677500  0.060800 1.000000 Biso 7.864101
H275  H  0.251000  0.658000  0.055000 1.000000 Biso 9.474820
C238  C  0.260700  0.722100  0.981070 1.000000 Biso 8.061493
H276  H  0.230500  0.696800  0.982500 1.000000 Biso 9.711691
C239  C  0.293300  0.711600  0.929900 1.000000 Biso 13.106835
H277  H  0.305700  0.674600  0.929800 1.000000 Biso 15.712410
H278  H  0.324500  0.734900  0.929400 1.000000 Biso 15.712410
C240  C  0.258800  0.722000  0.879600 1.000000 Biso 17.844245
H279  H  0.279600  0.714700  0.847500 1.000000 Biso 21.476259
H280  H  0.227700  0.698400  0.879600 1.000000 Biso 21.476259
N41  N  0.213500  0.027920  0.795140 1.000000 Biso 8.132554
C241  C  0.120400  0.138940  0.803700 1.000000 Biso 7.564065
H281  H  0.098300  0.129400  0.775100 1.000000 Biso 9.080036
C242  C  0.165290  0.108090  0.815600 1.000000 Biso 7.082428
C243  C  0.177500  0.060800  0.782400 1.000000 Biso 7.864101
H282  H  0.158000  0.055000  0.751000 1.000000 Biso 9.474820
C244  C  0.222100  0.981070  0.760700 1.000000 Biso 8.061493
H283  H  0.196800  0.982500  0.730500 1.000000 Biso 9.711691
C245  C  0.211600  0.929900  0.793300 1.000000 Biso 13.106835
H284  H  0.174600  0.929800  0.805700 1.000000 Biso 15.712410
H285  H  0.234900  0.929400  0.824500 1.000000 Biso 15.712410
C246  C  0.222000  0.879600  0.758800 1.000000 Biso 17.844245
H286  H  0.214700  0.847500  0.779600 1.000000 Biso 21.476259
H287  H  0.198400  0.879600  0.727700 1.000000 Biso 21.476259
N42  N  0.286500  0.527920  0.204860 1.000000 Biso 8.132554
C247  C  0.379600  0.638940  0.196300 1.000000 Biso 7.564065
H288  H  0.401700  0.629400  0.224900 1.000000 Biso 9.080036
C248  C  0.334710  0.608090  0.184400 1.000000 Biso 7.082428
C249  C  0.322500  0.560800  0.217600 1.000000 Biso 7.864101
H289  H  0.342000  0.555000  0.249000 1.000000 Biso 9.474820
C250  C  0.277900  0.481070  0.239300 1.000000 Biso 8.061493
H290  H  0.303200  0.482500  0.269500 1.000000 Biso 9.711691
C251  C  0.288400  0.429900  0.206700 1.000000 Biso 13.106835
H291  H  0.325400  0.429800  0.194300 1.000000 Biso 15.712410
H292  H  0.265100  0.429400  0.175500 1.000000 Biso 15.712410
C252  C  0.278000  0.379600  0.241200 1.000000 Biso 17.844245
H293  H  0.285300  0.347500  0.220400 1.000000 Biso 21.476259
H294  H  0.301600  0.379600  0.272300 1.000000 Biso 21.476259
N43  N  0.786500  0.472080  0.295140 1.000000 Biso 8.132554
C253  C  0.879600  0.361060  0.303700 1.000000 Biso 7.564065
H295  H  0.901700  0.370600  0.275100 1.000000 Biso 9.080036
C254  C  0.834710  0.391910  0.315600 1.000000 Biso 7.082428
C255  C  0.822500  0.439200  0.282400 1.000000 Biso 7.864101
H296  H  0.842000  0.445000  0.251000 1.000000 Biso 9.474820
C256  C  0.777900  0.518930  0.260700 1.000000 Biso 8.061493
H297  H  0.803200  0.517500  0.230500 1.000000 Biso 9.711691
C257  C  0.788400  0.570100  0.293300 1.000000 Biso 13.106835
H298  H  0.825400  0.570200  0.305700 1.000000 Biso 15.712410
H299  H  0.765100  0.570600  0.324500 1.000000 Biso 15.712410
C258  C  0.778000  0.620400  0.258800 1.000000 Biso 17.844245
H300  H  0.785300  0.652500  0.279600 1.000000 Biso 21.476259
H301  H  0.801600  0.620400  0.227700 1.000000 Biso 21.476259
N44  N  0.713500  0.972080  0.704860 1.000000 Biso 8.132554
C259  C  0.620400  0.861060  0.696300 1.000000 Biso 7.564065
H302  H  0.598300  0.870600  0.724900 1.000000 Biso 9.080036
C260  C  0.665290  0.891910  0.684400 1.000000 Biso 7.082428
C261  C  0.677500  0.939200  0.717600 1.000000 Biso 7.864101
H303  H  0.658000  0.945000  0.749000 1.000000 Biso 9.474820
C262  C  0.722100  0.018930  0.739300 1.000000 Biso 8.061493
H304  H  0.696800  0.017500  0.769500 1.000000 Biso 9.711691
C263  C  0.711600  0.070100  0.706700 1.000000 Biso 13.106835
H305  H  0.674600  0.070200  0.694300 1.000000 Biso 15.712410
H306  H  0.734900  0.070600  0.675500 1.000000 Biso 15.712410
C264  C  0.722000  0.120400  0.741200 1.000000 Biso 17.844245
H307  H  0.714700  0.152500  0.720400 1.000000 Biso 21.476259
H308  H  0.698400  0.120400  0.772300 1.000000 Biso 21.476259
N45  N  0.472080  0.704860  0.213500 1.000000 Biso 8.132554
C265  C  0.361060  0.696300  0.120400 1.000000 Biso 7.564065
H309  H  0.370600  0.724900  0.098300 1.000000 Biso 9.080036
C266  C  0.391910  0.684400  0.165290 1.000000 Biso 7.082428
C267  C  0.439200  0.717600  0.177500 1.000000 Biso 7.864101
H310  H  0.445000  0.749000  0.158000 1.000000 Biso 9.474820
C268  C  0.518930  0.739300  0.222100 1.000000 Biso 8.061493
H311  H  0.517500  0.769500  0.196800 1.000000 Biso 9.711691
C269  C  0.570100  0.706700  0.211600 1.000000 Biso 13.106835
H312  H  0.570200  0.694300  0.174600 1.000000 Biso 15.712410
H313  H  0.570600  0.675500  0.234900 1.000000 Biso 15.712410
C270  C  0.620400  0.741200  0.222000 1.000000 Biso 17.844245
H314  H  0.652500  0.720400  0.214700 1.000000 Biso 21.476259
H315  H  0.620400  0.772300  0.198400 1.000000 Biso 21.476259
N46  N  0.972080  0.295140  0.286500 1.000000 Biso 8.132554
C271  C  0.861060  0.303700  0.379600 1.000000 Biso 7.564065
H316  H  0.870600  0.275100  0.401700 1.000000 Biso 9.080036
C272  C  0.891910  0.315600  0.334710 1.000000 Biso 7.082428
C273  C  0.939200  0.282400  0.322500 1.000000 Biso 7.864101
H317  H  0.945000  0.251000  0.342000 1.000000 Biso 9.474820
C274  C  0.018930  0.260700  0.277900 1.000000 Biso 8.061493
H318  H  0.017500  0.230500  0.303200 1.000000 Biso 9.711691
C275  C  0.070100  0.293300  0.288400 1.000000 Biso 13.106835
H319  H  0.070200  0.305700  0.325400 1.000000 Biso 15.712410
H320  H  0.070600  0.324500  0.265100 1.000000 Biso 15.712410
C276  C  0.120400  0.258800  0.278000 1.000000 Biso 17.844245
H321  H  0.152500  0.279600  0.285300 1.000000 Biso 21.476259
H322  H  0.120400  0.227700  0.301600 1.000000 Biso 21.476259
N47  N  0.027920  0.204860  0.786500 1.000000 Biso 8.132554
C277  C  0.138940  0.196300  0.879600 1.000000 Biso 7.564065
H323  H  0.129400  0.224900  0.901700 1.000000 Biso 9.080036
C278  C  0.108090  0.184400  0.834710 1.000000 Biso 7.082428
C279  C  0.060800  0.217600  0.822500 1.000000 Biso 7.864101
H324  H  0.055000  0.249000  0.842000 1.000000 Biso 9.474820
C280  C  0.981070  0.239300  0.777900 1.000000 Biso 8.061493
H325  H  0.982500  0.269500  0.803200 1.000000 Biso 9.711691
C281  C  0.929900  0.206700  0.788400 1.000000 Biso 13.106835
H326  H  0.929800  0.194300  0.825400 1.000000 Biso 15.712410
H327  H  0.929400  0.175500  0.765100 1.000000 Biso 15.712410
C282  C  0.879600  0.241200  0.778000 1.000000 Biso 17.844245
H328  H  0.847500  0.220400  0.785300 1.000000 Biso 21.476259
H329  H  0.879600  0.272300  0.801600 1.000000 Biso 21.476259
N48  N  0.527920  0.795140  0.713500 1.000000 Biso 8.132554
C283  C  0.638940  0.803700  0.620400 1.000000 Biso 7.564065
H330  H  0.629400  0.775100  0.598300 1.000000 Biso 9.080036
C284  C  0.608090  0.815600  0.665290 1.000000 Biso 7.082428
C285  C  0.560800  0.782400  0.677500 1.000000 Biso 7.864101
H331  H  0.555000  0.751000  0.658000 1.000000 Biso 9.474820
C286  C  0.481070  0.760700  0.722100 1.000000 Biso 8.061493
H332  H  0.482500  0.730500  0.696800 1.000000 Biso 9.711691
C287  C  0.429900  0.793300  0.711600 1.000000 Biso 13.106835
H333  H  0.429800  0.805700  0.674600 1.000000 Biso 15.712410
H334  H  0.429400  0.824500  0.734900 1.000000 Biso 15.712410
C288  C  0.379600  0.758800  0.722000 1.000000 Biso 17.844245
H335  H  0.347500  0.779600  0.714700 1.000000 Biso 21.476259
H336  H  0.379600  0.727700  0.698400 1.000000 Biso 21.476259
N49  N  0.777920  0.963500  0.454860 1.000000 Biso 8.132554
C289  C  0.888940  0.870400  0.446300 1.000000 Biso 7.564065
H337  H  0.879400  0.848300  0.474900 1.000000 Biso 9.080036
C290  C  0.858090  0.915290  0.434400 1.000000 Biso 7.082428
C291  C  0.810800  0.927500  0.467600 1.000000 Biso 7.864101
H338  H  0.805000  0.908000  0.499000 1.000000 Biso 9.474820
C292  C  0.731070  0.972100  0.489300 1.000000 Biso 8.061493
H339  H  0.732500  0.946800  0.519500 1.000000 Biso 9.711691
C293  C  0.679900  0.961600  0.456700 1.000000 Biso 13.106835
H340  H  0.679800  0.924600  0.444300 1.000000 Biso 15.712410
H341  H  0.679400  0.984900  0.425500 1.000000 Biso 15.712410
C294  C  0.629600  0.972000  0.491200 1.000000 Biso 17.844245
H342  H  0.597500  0.964700  0.470400 1.000000 Biso 21.476259
H343  H  0.629600  0.948400  0.522300 1.000000 Biso 21.476259
N50  N  0.277920  0.036500  0.045140 1.000000 Biso 8.132554
C295  C  0.388940  0.129600  0.053700 1.000000 Biso 7.564065
H344  H  0.379400  0.151700  0.025100 1.000000 Biso 9.080036
C296  C  0.358090  0.084710  0.065600 1.000000 Biso 7.082428
C297  C  0.310800  0.072500  0.032400 1.000000 Biso 7.864101
H345  H  0.305000  0.092000  0.001000 1.000000 Biso 9.474820
C298  C  0.231070  0.027900  0.010700 1.000000 Biso 8.061493
H346  H  0.232500  0.053200  0.980500 1.000000 Biso 9.711691
C299  C  0.179900  0.038400  0.043300 1.000000 Biso 13.106835
H347  H  0.179800  0.075400  0.055700 1.000000 Biso 15.712410
H348  H  0.179400  0.015100  0.074500 1.000000 Biso 15.712410
C300  C  0.129600  0.028000  0.008800 1.000000 Biso 17.844245
H349  H  0.097500  0.035300  0.029600 1.000000 Biso 21.476259
H350  H  0.129600  0.051600  0.977700 1.000000 Biso 21.476259
N51  N  0.222080  0.536500  0.954860 1.000000 Biso 8.132554
C301  C  0.111060  0.629600  0.946300 1.000000 Biso 7.564065
H351  H  0.120600  0.651700  0.974900 1.000000 Biso 9.080036
C302  C  0.141910  0.584710  0.934400 1.000000 Biso 7.082428
C303  C  0.189200  0.572500  0.967600 1.000000 Biso 7.864101
H352  H  0.195000  0.592000  0.999000 1.000000 Biso 9.474820
C304  C  0.268930  0.527900  0.989300 1.000000 Biso 8.061493
H353  H  0.267500  0.553200  0.019500 1.000000 Biso 9.711691
C305  C  0.320100  0.538400  0.956700 1.000000 Biso 13.106835
H354  H  0.320200  0.575400  0.944300 1.000000 Biso 15.712410
H355  H  0.320600  0.515100  0.925500 1.000000 Biso 15.712410
C306  C  0.370400  0.528000  0.991200 1.000000 Biso 17.844245
H356  H  0.402500  0.535300  0.970400 1.000000 Biso 21.476259
H357  H  0.370400  0.551600  0.022300 1.000000 Biso 21.476259
N52  N  0.722080  0.463500  0.545140 1.000000 Biso 8.132554
C307  C  0.611060  0.370400  0.553700 1.000000 Biso 7.564065
H358  H  0.620600  0.348300  0.525100 1.000000 Biso 9.080036
C308  C  0.641910  0.415290  0.565600 1.000000 Biso 7.082428
C309  C  0.689200  0.427500  0.532400 1.000000 Biso 7.864101
H359  H  0.695000  0.408000  0.501000 1.000000 Biso 9.474820
C310  C  0.768930  0.472100  0.510700 1.000000 Biso 8.061493
H360  H  0.767500  0.446800  0.480500 1.000000 Biso 9.711691
C311  C  0.820100  0.461600  0.543300 1.000000 Biso 13.106835
H361  H  0.820200  0.424600  0.555700 1.000000 Biso 15.712410
H362  H  0.820600  0.484900  0.574500 1.000000 Biso 15.712410
C312  C  0.870400  0.472000  0.508800 1.000000 Biso 17.844245
H363  H  0.902500  0.464700  0.529600 1.000000 Biso 21.476259
H364  H  0.870400  0.448400  0.477700 1.000000 Biso 21.476259
N53  N  0.954860  0.777920  0.463500 1.000000 Biso 8.132554
C313  C  0.946300  0.888940  0.370400 1.000000 Biso 7.564065
H365  H  0.974900  0.879400  0.348300 1.000000 Biso 9.080036
C314  C  0.934400  0.858090  0.415290 1.000000 Biso 7.082428
C315  C  0.967600  0.810800  0.427500 1.000000 Biso 7.864101
H366  H  0.999000  0.805000  0.408000 1.000000 Biso 9.474820
C316  C  0.989300  0.731070  0.472100 1.000000 Biso 8.061493
H367  H  0.019500  0.732500  0.446800 1.000000 Biso 9.711691
C317  C  0.956700  0.679900  0.461600 1.000000 Biso 13.106835
H368  H  0.944300  0.679800  0.424600 1.000000 Biso 15.712410
H369  H  0.925500  0.679400  0.484900 1.000000 Biso 15.712410
C318  C  0.991200  0.629600  0.472000 1.000000 Biso 17.844245
H370  H  0.970400  0.597500  0.464700 1.000000 Biso 21.476259
H371  H  0.022300  0.629600  0.448400 1.000000 Biso 21.476259
N54  N  0.545140  0.277920  0.536500 1.000000 Biso 8.132554
C319  C  0.553700  0.388940  0.629600 1.000000 Biso 7.564065
H372  H  0.525100  0.379400  0.651700 1.000000 Biso 9.080036
C320  C  0.565600  0.358090  0.584710 1.000000 Biso 7.082428
C321  C  0.532400  0.310800  0.572500 1.000000 Biso 7.864101
H373  H  0.501000  0.305000  0.592000 1.000000 Biso 9.474820
C322  C  0.510700  0.231070  0.527900 1.000000 Biso 8.061493
H374  H  0.480500  0.232500  0.553200 1.000000 Biso 9.711691
C323  C  0.543300  0.179900  0.538400 1.000000 Biso 13.106835
H375  H  0.555700  0.179800  0.575400 1.000000 Biso 15.712410
H376  H  0.574500  0.179400  0.515100 1.000000 Biso 15.712410
C324  C  0.508800  0.129600  0.528000 1.000000 Biso 17.844245
H377  H  0.529600  0.097500  0.535300 1.000000 Biso 21.476259
H378  H  0.477700  0.129600  0.551600 1.000000 Biso 21.476259
N55  N  0.454860  0.222080  0.036500 1.000000 Biso 8.132554
C325  C  0.446300  0.111060  0.129600 1.000000 Biso 7.564065
H379  H  0.474900  0.120600  0.151700 1.000000 Biso 9.080036
C326  C  0.434400  0.141910  0.084710 1.000000 Biso 7.082428
C327  C  0.467600  0.189200  0.072500 1.000000 Biso 7.864101
H380  H  0.499000  0.195000  0.092000 1.000000 Biso 9.474820
C328  C  0.489300  0.268930  0.027900 1.000000 Biso 8.061493
H381  H  0.519500  0.267500  0.053200 1.000000 Biso 9.711691
C329  C  0.456700  0.320100  0.038400 1.000000 Biso 13.106835
H382  H  0.444300  0.320200  0.075400 1.000000 Biso 15.712410
H383  H  0.425500  0.320600  0.015100 1.000000 Biso 15.712410
C330  C  0.491200  0.370400  0.028000 1.000000 Biso 17.844245
H384  H  0.470400  0.402500  0.035300 1.000000 Biso 21.476259
H385  H  0.522300  0.370400  0.051600 1.000000 Biso 21.476259
N56  N  0.045140  0.722080  0.963500 1.000000 Biso 8.132554
C331  C  0.053700  0.611060  0.870400 1.000000 Biso 7.564065
H386  H  0.025100  0.620600  0.848300 1.000000 Biso 9.080036
C332  C  0.065600  0.641910  0.915290 1.000000 Biso 7.082428
C333  C  0.032400  0.689200  0.927500 1.000000 Biso 7.864101
H387  H  0.001000  0.695000  0.908000 1.000000 Biso 9.474820
C334  C  0.010700  0.768930  0.972100 1.000000 Biso 8.061493
H388  H  0.980500  0.767500  0.946800 1.000000 Biso 9.711691
C335  C  0.043300  0.820100  0.961600 1.000000 Biso 13.106835
H389  H  0.055700  0.820200  0.924600 1.000000 Biso 15.712410
H390  H  0.074500  0.820600  0.984900 1.000000 Biso 15.712410
C336  C  0.008800  0.870400  0.972000 1.000000 Biso 17.844245
H391  H  0.029600  0.902500  0.964700 1.000000 Biso 21.476259
H392  H  0.977700  0.870400  0.948400 1.000000 Biso 21.476259
N57  N  0.536500  0.454860  0.722080 1.000000 Biso 8.132554
C337  C  0.629600  0.446300  0.611060 1.000000 Biso 7.564065
H393  H  0.651700  0.474900  0.620600 1.000000 Biso 9.080036
C338  C  0.584710  0.434400  0.641910 1.000000 Biso 7.082428
C339  C  0.572500  0.467600  0.689200 1.000000 Biso 7.864101
H394  H  0.592000  0.499000  0.695000 1.000000 Biso 9.474820
C340  C  0.527900  0.489300  0.768930 1.000000 Biso 8.061493
H395  H  0.553200  0.519500  0.767500 1.000000 Biso 9.711691
C341  C  0.538400  0.456700  0.820100 1.000000 Biso 13.106835
H396  H  0.575400  0.444300  0.820200 1.000000 Biso 15.712410
H397  H  0.515100  0.425500  0.820600 1.000000 Biso 15.712410
C342  C  0.528000  0.491200  0.870400 1.000000 Biso 17.844245
H398  H  0.535300  0.470400  0.902500 1.000000 Biso 21.476259
H399  H  0.551600  0.522300  0.870400 1.000000 Biso 21.476259
N58  N  0.463500  0.045140  0.222080 1.000000 Biso 8.132554
C343  C  0.370400  0.053700  0.111060 1.000000 Biso 7.564065
H400  H  0.348300  0.025100  0.120600 1.000000 Biso 9.080036
C344  C  0.415290  0.065600  0.141910 1.000000 Biso 7.082428
C345  C  0.427500  0.032400  0.189200 1.000000 Biso 7.864101
H401  H  0.408000  0.001000  0.195000 1.000000 Biso 9.474820
C346  C  0.472100  0.010700  0.268930 1.000000 Biso 8.061493
H402  H  0.446800  0.980500  0.267500 1.000000 Biso 9.711691
C347  C  0.461600  0.043300  0.320100 1.000000 Biso 13.106835
H403  H  0.424600  0.055700  0.320200 1.000000 Biso 15.712410
H404  H  0.484900  0.074500  0.320600 1.000000 Biso 15.712410
C348  C  0.472000  0.008800  0.370400 1.000000 Biso 17.844245
H405  H  0.464700  0.029600  0.402500 1.000000 Biso 21.476259
H406  H  0.448400  0.977700  0.370400 1.000000 Biso 21.476259
N59  N  0.963500  0.954860  0.277920 1.000000 Biso 8.132554
C349  C  0.870400  0.946300  0.388940 1.000000 Biso 7.564065
H407  H  0.848300  0.974900  0.379400 1.000000 Biso 9.080036
C350  C  0.915290  0.934400  0.358090 1.000000 Biso 7.082428
C351  C  0.927500  0.967600  0.310800 1.000000 Biso 7.864101
H408  H  0.908000  0.999000  0.305000 1.000000 Biso 9.474820
C352  C  0.972100  0.989300  0.231070 1.000000 Biso 8.061493
H409  H  0.946800  0.019500  0.232500 1.000000 Biso 9.711691
C353  C  0.961600  0.956700  0.179900 1.000000 Biso 13.106835
H410  H  0.924600  0.944300  0.179800 1.000000 Biso 15.712410
H411  H  0.984900  0.925500  0.179400 1.000000 Biso 15.712410
C354  C  0.972000  0.991200  0.129600 1.000000 Biso 17.844245
H412  H  0.964700  0.970400  0.097500 1.000000 Biso 21.476259
H413  H  0.948400  0.022300  0.129600 1.000000 Biso 21.476259
N60  N  0.036500  0.545140  0.777920 1.000000 Biso 8.132554
C355  C  0.129600  0.553700  0.888940 1.000000 Biso 7.564065
H414  H  0.151700  0.525100  0.879400 1.000000 Biso 9.080036
C356  C  0.084710  0.565600  0.858090 1.000000 Biso 7.082428
C357  C  0.072500  0.532400  0.810800 1.000000 Biso 7.864101
H415  H  0.092000  0.501000  0.805000 1.000000 Biso 9.474820
C358  C  0.027900  0.510700  0.731070 1.000000 Biso 8.061493
H416  H  0.053200  0.480500  0.732500 1.000000 Biso 9.711691
C359  C  0.038400  0.543300  0.679900 1.000000 Biso 13.106835
H417  H  0.075400  0.555700  0.679800 1.000000 Biso 15.712410
H418  H  0.015100  0.574500  0.679400 1.000000 Biso 15.712410
C360  C  0.028000  0.508800  0.629600 1.000000 Biso 17.844245
H419  H  0.035300  0.529600  0.597500 1.000000 Biso 21.476259
H420  H  0.051600  0.477700  0.629600 1.000000 Biso 21.476259
N61  N  0.972080  0.704860  0.713500 1.000000 Biso 8.132554
C361  C  0.861060  0.696300  0.620400 1.000000 Biso 7.564065
H421  H  0.870600  0.724900  0.598300 1.000000 Biso 9.080036
C362  C  0.891910  0.684400  0.665290 1.000000 Biso 7.082428
C363  C  0.939200  0.717600  0.677500 1.000000 Biso 7.864101
H422  H  0.945000  0.749000  0.658000 1.000000 Biso 9.474820
C364  C  0.018930  0.739300  0.722100 1.000000 Biso 8.061493
H423  H  0.017500  0.769500  0.696800 1.000000 Biso 9.711691
C365  C  0.070100  0.706700  0.711600 1.000000 Biso 13.106835
H424  H  0.070200  0.694300  0.674600 1.000000 Biso 15.712410
H425  H  0.070600  0.675500  0.734900 1.000000 Biso 15.712410
C366  C  0.120400  0.741200  0.722000 1.000000 Biso 17.844245
H426  H  0.152500  0.720400  0.714700 1.000000 Biso 21.476259
H427  H  0.120400  0.772300  0.698400 1.000000 Biso 21.476259
N62  N  0.472080  0.295140  0.786500 1.000000 Biso 8.132554
C367  C  0.361060  0.303700  0.879600 1.000000 Biso 7.564065
H428  H  0.370600  0.275100  0.901700 1.000000 Biso 9.080036
C368  C  0.391910  0.315600  0.834710 1.000000 Biso 7.082428
C369  C  0.439200  0.282400  0.822500 1.000000 Biso 7.864101
H429  H  0.445000  0.251000  0.842000 1.000000 Biso 9.474820
C370  C  0.518930  0.260700  0.777900 1.000000 Biso 8.061493
H430  H  0.517500  0.230500  0.803200 1.000000 Biso 9.711691
C371  C  0.570100  0.293300  0.788400 1.000000 Biso 13.106835
H431  H  0.570200  0.305700  0.825400 1.000000 Biso 15.712410
H432  H  0.570600  0.324500  0.765100 1.000000 Biso 15.712410
C372  C  0.620400  0.258800  0.778000 1.000000 Biso 17.844245
H433  H  0.652500  0.279600  0.785300 1.000000 Biso 21.476259
H434  H  0.620400  0.227700  0.801600 1.000000 Biso 21.476259
N63  N  0.527920  0.204860  0.286500 1.000000 Biso 8.132554
C373  C  0.638940  0.196300  0.379600 1.000000 Biso 7.564065
H435  H  0.629400  0.224900  0.401700 1.000000 Biso 9.080036
C374  C  0.608090  0.184400  0.334710 1.000000 Biso 7.082428
C375  C  0.560800  0.217600  0.322500 1.000000 Biso 7.864101
H436  H  0.555000  0.249000  0.342000 1.000000 Biso 9.474820
C376  C  0.481070  0.239300  0.277900 1.000000 Biso 8.061493
H437  H  0.482500  0.269500  0.303200 1.000000 Biso 9.711691
C377  C  0.429900  0.206700  0.288400 1.000000 Biso 13.106835
H438  H  0.429800  0.194300  0.325400 1.000000 Biso 15.712410
H439  H  0.429400  0.175500  0.265100 1.000000 Biso 15.712410
C378  C  0.379600  0.241200  0.278000 1.000000 Biso 17.844245
H440  H  0.347500  0.220400  0.285300 1.000000 Biso 21.476259
H441  H  0.379600  0.272300  0.301600 1.000000 Biso 21.476259
N64  N  0.027920  0.795140  0.213500 1.000000 Biso 8.132554
C379  C  0.138940  0.803700  0.120400 1.000000 Biso 7.564065
H442  H  0.129400  0.775100  0.098300 1.000000 Biso 9.080036
C380  C  0.108090  0.815600  0.165290 1.000000 Biso 7.082428
C381  C  0.060800  0.782400  0.177500 1.000000 Biso 7.864101
H443  H  0.055000  0.751000  0.158000 1.000000 Biso 9.474820
C382  C  0.981070  0.760700  0.222100 1.000000 Biso 8.061493
H444  H  0.982500  0.730500  0.196800 1.000000 Biso 9.711691
C383  C  0.929900  0.793300  0.211600 1.000000 Biso 13.106835
H445  H  0.929800  0.805700  0.174600 1.000000 Biso 15.712410
H446  H  0.929400  0.824500  0.234900 1.000000 Biso 15.712410
C384  C  0.879600  0.758800  0.222000 1.000000 Biso 17.844245
H447  H  0.847500  0.779600  0.214700 1.000000 Biso 21.476259
H448  H  0.879600  0.727700  0.198400 1.000000 Biso 21.476259
N65  N  0.795140  0.713500  0.527920 1.000000 Biso 8.132554
C385  C  0.803700  0.620400  0.638940 1.000000 Biso 7.564065
H449  H  0.775100  0.598300  0.629400 1.000000 Biso 9.080036
C386  C  0.815600  0.665290  0.608090 1.000000 Biso 7.082428
C387  C  0.782400  0.677500  0.560800 1.000000 Biso 7.864101
H450  H  0.751000  0.658000  0.555000 1.000000 Biso 9.474820
C388  C  0.760700  0.722100  0.481070 1.000000 Biso 8.061493
H451  H  0.730500  0.696800  0.482500 1.000000 Biso 9.711691
C389  C  0.793300  0.711600  0.429900 1.000000 Biso 13.106835
H452  H  0.805700  0.674600  0.429800 1.000000 Biso 15.712410
H453  H  0.824500  0.734900  0.429400 1.000000 Biso 15.712410
C390  C  0.758800  0.722000  0.379600 1.000000 Biso 17.844245
H454  H  0.779600  0.714700  0.347500 1.000000 Biso 21.476259
H455  H  0.727700  0.698400  0.379600 1.000000 Biso 21.476259
N66  N  0.204860  0.786500  0.027920 1.000000 Biso 8.132554
C391  C  0.196300  0.879600  0.138940 1.000000 Biso 7.564065
H456  H  0.224900  0.901700  0.129400 1.000000 Biso 9.080036
C392  C  0.184400  0.834710  0.108090 1.000000 Biso 7.082428
C393  C  0.217600  0.822500  0.060800 1.000000 Biso 7.864101
H457  H  0.249000  0.842000  0.055000 1.000000 Biso 9.474820
C394  C  0.239300  0.777900  0.981070 1.000000 Biso 8.061493
H458  H  0.269500  0.803200  0.982500 1.000000 Biso 9.711691
C395  C  0.206700  0.788400  0.929900 1.000000 Biso 13.106835
H459  H  0.194300  0.825400  0.929800 1.000000 Biso 15.712410
H460  H  0.175500  0.765100  0.929400 1.000000 Biso 15.712410
C396  C  0.241200  0.778000  0.879600 1.000000 Biso 17.844245
H461  H  0.220400  0.785300  0.847500 1.000000 Biso 21.476259
H462  H  0.272300  0.801600  0.879600 1.000000 Biso 21.476259
N67  N  0.295140  0.286500  0.972080 1.000000 Biso 8.132554
C397  C  0.303700  0.379600  0.861060 1.000000 Biso 7.564065
H463  H  0.275100  0.401700  0.870600 1.000000 Biso 9.080036
C398  C  0.315600  0.334710  0.891910 1.000000 Biso 7.082428
C399  C  0.282400  0.322500  0.939200 1.000000 Biso 7.864101
H464  H  0.251000  0.342000  0.945000 1.000000 Biso 9.474820
C400  C  0.260700  0.277900  0.018930 1.000000 Biso 8.061493
H465  H  0.230500  0.303200  0.017500 1.000000 Biso 9.711691
C401  C  0.293300  0.288400  0.070100 1.000000 Biso 13.106835
H466  H  0.305700  0.325400  0.070200 1.000000 Biso 15.712410
H467  H  0.324500  0.265100  0.070600 1.000000 Biso 15.712410
C402  C  0.258800  0.278000  0.120400 1.000000 Biso 17.844245
H468  H  0.279600  0.285300  0.152500 1.000000 Biso 21.476259
H469  H  0.227700  0.301600  0.120400 1.000000 Biso 21.476259
N68  N  0.704860  0.213500  0.472080 1.000000 Biso 8.132554
C403  C  0.696300  0.120400  0.361060 1.000000 Biso 7.564065
H470  H  0.724900  0.098300  0.370600 1.000000 Biso 9.080036
C404  C  0.684400  0.165290  0.391910 1.000000 Biso 7.082428
C405  C  0.717600  0.177500  0.439200 1.000000 Biso 7.864101
H471  H  0.749000  0.158000  0.445000 1.000000 Biso 9.474820
C406  C  0.739300  0.222100  0.518930 1.000000 Biso 8.061493
H472  H  0.769500  0.196800  0.517500 1.000000 Biso 9.711691
C407  C  0.706700  0.211600  0.570100 1.000000 Biso 13.106835
H473  H  0.694300  0.174600  0.570200 1.000000 Biso 15.712410
H474  H  0.675500  0.234900  0.570600 1.000000 Biso 15.712410
C408  C  0.741200  0.222000  0.620400 1.000000 Biso 17.844245
H475  H  0.720400  0.214700  0.652500 1.000000 Biso 21.476259
H476  H  0.772300  0.198400  0.620400 1.000000 Biso 21.476259
N69  N  0.213500  0.972080  0.204860 1.000000 Biso 8.132554
C409  C  0.120400  0.861060  0.196300 1.000000 Biso 7.564065
H477  H  0.098300  0.870600  0.224900 1.000000 Biso 9.080036
C410  C  0.165290  0.891910  0.184400 1.000000 Biso 7.082428
C411  C  0.177500  0.939200  0.217600 1.000000 Biso 7.864101
H478  H  0.158000  0.945000  0.249000 1.000000 Biso 9.474820
C412  C  0.222100  0.018930  0.239300 1.000000 Biso 8.061493
H479  H  0.196800  0.017500  0.269500 1.000000 Biso 9.711691
C413  C  0.211600  0.070100  0.206700 1.000000 Biso 13.106835
H480  H  0.174600  0.070200  0.194300 1.000000 Biso 15.712410
H481  H  0.234900  0.070600  0.175500 1.000000 Biso 15.712410
C414  C  0.222000  0.120400  0.241200 1.000000 Biso 17.844245
H482  H  0.214700  0.152500  0.220400 1.000000 Biso 21.476259
H483  H  0.198400  0.120400  0.272300 1.000000 Biso 21.476259
N70  N  0.286500  0.472080  0.795140 1.000000 Biso 8.132554
C415  C  0.379600  0.361060  0.803700 1.000000 Biso 7.564065
H484  H  0.401700  0.370600  0.775100 1.000000 Biso 9.080036
C416  C  0.334710  0.391910  0.815600 1.000000 Biso 7.082428
C417  C  0.322500  0.439200  0.782400 1.000000 Biso 7.864101
H485  H  0.342000  0.445000  0.751000 1.000000 Biso 9.474820
C418  C  0.277900  0.518930  0.760700 1.000000 Biso 8.061493
H486  H  0.303200  0.517500  0.730500 1.000000 Biso 9.711691
C419  C  0.288400  0.570100  0.793300 1.000000 Biso 13.106835
H487  H  0.325400  0.570200  0.805700 1.000000 Biso 15.712410
H488  H  0.265100  0.570600  0.824500 1.000000 Biso 15.712410
C420  C  0.278000  0.620400  0.758800 1.000000 Biso 17.844245
H489  H  0.285300  0.652500  0.779600 1.000000 Biso 21.476259
H490  H  0.301600  0.620400  0.727700 1.000000 Biso 21.476259
N71  N  0.786500  0.527920  0.704860 1.000000 Biso 8.132554
C421  C  0.879600  0.638940  0.696300 1.000000 Biso 7.564065
H491  H  0.901700  0.629400  0.724900 1.000000 Biso 9.080036
C422  C  0.834710  0.608090  0.684400 1.000000 Biso 7.082428
C423  C  0.822500  0.560800  0.717600 1.000000 Biso 7.864101
H492  H  0.842000  0.555000  0.749000 1.000000 Biso 9.474820
C424  C  0.777900  0.481070  0.739300 1.000000 Biso 8.061493
H493  H  0.803200  0.482500  0.769500 1.000000 Biso 9.711691
C425  C  0.788400  0.429900  0.706700 1.000000 Biso 13.106835
H494  H  0.825400  0.429800  0.694300 1.000000 Biso 15.712410
H495  H  0.765100  0.429400  0.675500 1.000000 Biso 15.712410
C426  C  0.778000  0.379600  0.741200 1.000000 Biso 17.844245
H496  H  0.785300  0.347500  0.720400 1.000000 Biso 21.476259
H497  H  0.801600  0.379600  0.772300 1.000000 Biso 21.476259
N72  N  0.713500  0.027920  0.295140 1.000000 Biso 8.132554
C427  C  0.620400  0.138940  0.303700 1.000000 Biso 7.564065
H498  H  0.598300  0.129400  0.275100 1.000000 Biso 9.080036
C428  C  0.665290  0.108090  0.315600 1.000000 Biso 7.082428
C429  C  0.677500  0.060800  0.282400 1.000000 Biso 7.864101
H499  H  0.658000  0.055000  0.251000 1.000000 Biso 9.474820
C430  C  0.722100  0.981070  0.260700 1.000000 Biso 8.061493
H500  H  0.696800  0.982500  0.230500 1.000000 Biso 9.711691
C431  C  0.711600  0.929900  0.293300 1.000000 Biso 13.106835
H501  H  0.674600  0.929800  0.305700 1.000000 Biso 15.712410
H502  H  0.734900  0.929400  0.324500 1.000000 Biso 15.712410
C432  C  0.722000  0.879600  0.258800 1.000000 Biso 17.844245
H503  H  0.714700  0.847500  0.279600 1.000000 Biso 21.476259
H504  H  0.698400  0.879600  0.227700 1.000000 Biso 21.476259
N73  N  0.954860  0.277920  0.963500 1.000000 Biso 8.132554
C433  C  0.946300  0.388940  0.870400 1.000000 Biso 7.564065
H505  H  0.974900  0.379400  0.848300 1.000000 Biso 9.080036
C434  C  0.934400  0.358090  0.915290 1.000000 Biso 7.082428
C435  C  0.967600  0.310800  0.927500 1.000000 Biso 7.864101
H506  H  0.999000  0.305000  0.908000 1.000000 Biso 9.474820
C436  C  0.989300  0.231070  0.972100 1.000000 Biso 8.061493
H507  H  0.019500  0.232500  0.946800 1.000000 Biso 9.711691
C437  C  0.956700  0.179900  0.961600 1.000000 Biso 13.106835
H508  H  0.944300  0.179800  0.924600 1.000000 Biso 15.712410
H509  H  0.925500  0.179400  0.984900 1.000000 Biso 15.712410
C438  C  0.991200  0.129600  0.972000 1.000000 Biso 17.844245
H510  H  0.970400  0.097500  0.964700 1.000000 Biso 21.476259
H511  H  0.022300  0.129600  0.948400 1.000000 Biso 21.476259
N74  N  0.545140  0.777920  0.036500 1.000000 Biso 8.132554
C439  C  0.553700  0.888940  0.129600 1.000000 Biso 7.564065
H512  H  0.525100  0.879400  0.151700 1.000000 Biso 9.080036
C440  C  0.565600  0.858090  0.084710 1.000000 Biso 7.082428
C441  C  0.532400  0.810800  0.072500 1.000000 Biso 7.864101
H513  H  0.501000  0.805000  0.092000 1.000000 Biso 9.474820
C442  C  0.510700  0.731070  0.027900 1.000000 Biso 8.061493
H514  H  0.480500  0.732500  0.053200 1.000000 Biso 9.711691
C443  C  0.543300  0.679900  0.038400 1.000000 Biso 13.106835
H515  H  0.555700  0.679800  0.075400 1.000000 Biso 15.712410
H516  H  0.574500  0.679400  0.015100 1.000000 Biso 15.712410
C444  C  0.508800  0.629600  0.028000 1.000000 Biso 17.844245
H517  H  0.529600  0.597500  0.035300 1.000000 Biso 21.476259
H518  H  0.477700  0.629600  0.051600 1.000000 Biso 21.476259
N75  N  0.454860  0.722080  0.536500 1.000000 Biso 8.132554
C445  C  0.446300  0.611060  0.629600 1.000000 Biso 7.564065
H519  H  0.474900  0.620600  0.651700 1.000000 Biso 9.080036
C446  C  0.434400  0.641910  0.584710 1.000000 Biso 7.082428
C447  C  0.467600  0.689200  0.572500 1.000000 Biso 7.864101
H520  H  0.499000  0.695000  0.592000 1.000000 Biso 9.474820
C448  C  0.489300  0.768930  0.527900 1.000000 Biso 8.061493
H521  H  0.519500  0.767500  0.553200 1.000000 Biso 9.711691
C449  C  0.456700  0.820100  0.538400 1.000000 Biso 13.106835
H522  H  0.444300  0.820200  0.575400 1.000000 Biso 15.712410
H523  H  0.425500  0.820600  0.515100 1.000000 Biso 15.712410
C450  C  0.491200  0.870400  0.528000 1.000000 Biso 17.844245
H524  H  0.470400  0.902500  0.535300 1.000000 Biso 21.476259
H525  H  0.522300  0.870400  0.551600 1.000000 Biso 21.476259
N76  N  0.045140  0.222080  0.463500 1.000000 Biso 8.132554
C451  C  0.053700  0.111060  0.370400 1.000000 Biso 7.564065
H526  H  0.025100  0.120600  0.348300 1.000000 Biso 9.080036
C452  C  0.065600  0.141910  0.415290 1.000000 Biso 7.082428
C453  C  0.032400  0.189200  0.427500 1.000000 Biso 7.864101
H527  H  0.001000  0.195000  0.408000 1.000000 Biso 9.474820
C454  C  0.010700  0.268930  0.472100 1.000000 Biso 8.061493
H528  H  0.980500  0.267500  0.446800 1.000000 Biso 9.711691
C455  C  0.043300  0.320100  0.461600 1.000000 Biso 13.106835
H529  H  0.055700  0.320200  0.424600 1.000000 Biso 15.712410
H530  H  0.074500  0.320600  0.484900 1.000000 Biso 15.712410
C456  C  0.008800  0.370400  0.472000 1.000000 Biso 17.844245
H531  H  0.029600  0.402500  0.464700 1.000000 Biso 21.476259
H532  H  0.977700  0.370400  0.448400 1.000000 Biso 21.476259
N77  N  0.963500  0.454860  0.777920 1.000000 Biso 8.132554
C457  C  0.870400  0.446300  0.888940 1.000000 Biso 7.564065
H533  H  0.848300  0.474900  0.879400 1.000000 Biso 9.080036
C458  C  0.915290  0.434400  0.858090 1.000000 Biso 7.082428
C459  C  0.927500  0.467600  0.810800 1.000000 Biso 7.864101
H534  H  0.908000  0.499000  0.805000 1.000000 Biso 9.474820
C460  C  0.972100  0.489300  0.731070 1.000000 Biso 8.061493
H535  H  0.946800  0.519500  0.732500 1.000000 Biso 9.711691
C461  C  0.961600  0.456700  0.679900 1.000000 Biso 13.106835
H536  H  0.924600  0.444300  0.679800 1.000000 Biso 15.712410
H537  H  0.984900  0.425500  0.679400 1.000000 Biso 15.712410
C462  C  0.972000  0.491200  0.629600 1.000000 Biso 17.844245
H538  H  0.964700  0.470400  0.597500 1.000000 Biso 21.476259
H539  H  0.948400  0.522300  0.629600 1.000000 Biso 21.476259
N78  N  0.036500  0.045140  0.277920 1.000000 Biso 8.132554
C463  C  0.129600  0.053700  0.388940 1.000000 Biso 7.564065
H540  H  0.151700  0.025100  0.379400 1.000000 Biso 9.080036
C464  C  0.084710  0.065600  0.358090 1.000000 Biso 7.082428
C465  C  0.072500  0.032400  0.310800 1.000000 Biso 7.864101
H541  H  0.092000  0.001000  0.305000 1.000000 Biso 9.474820
C466  C  0.027900  0.010700  0.231070 1.000000 Biso 8.061493
H542  H  0.053200  0.980500  0.232500 1.000000 Biso 9.711691
C467  C  0.038400  0.043300  0.179900 1.000000 Biso 13.106835
H543  H  0.075400  0.055700  0.179800 1.000000 Biso 15.712410
H544  H  0.015100  0.074500  0.179400 1.000000 Biso 15.712410
C468  C  0.028000  0.008800  0.129600 1.000000 Biso 17.844245
H545  H  0.035300  0.029600  0.097500 1.000000 Biso 21.476259
H546  H  0.051600  0.977700  0.129600 1.000000 Biso 21.476259
N79  N  0.536500  0.954860  0.222080 1.000000 Biso 8.132554
C469  C  0.629600  0.946300  0.111060 1.000000 Biso 7.564065
H547  H  0.651700  0.974900  0.120600 1.000000 Biso 9.080036
C470  C  0.584710  0.934400  0.141910 1.000000 Biso 7.082428
C471  C  0.572500  0.967600  0.189200 1.000000 Biso 7.864101
H548  H  0.592000  0.999000  0.195000 1.000000 Biso 9.474820
C472  C  0.527900  0.989300  0.268930 1.000000 Biso 8.061493
H549  H  0.553200  0.019500  0.267500 1.000000 Biso 9.711691
C473  C  0.538400  0.956700  0.320100 1.000000 Biso 13.106835
H550  H  0.575400  0.944300  0.320200 1.000000 Biso 15.712410
H551  H  0.515100  0.925500  0.320600 1.000000 Biso 15.712410
C474  C  0.528000  0.991200  0.370400 1.000000 Biso 17.844245
H552  H  0.535300  0.970400  0.402500 1.000000 Biso 21.476259
H553  H  0.551600  0.022300  0.370400 1.000000 Biso 21.476259
N80  N  0.463500  0.545140  0.722080 1.000000 Biso 8.132554
C475  C  0.370400  0.553700  0.611060 1.000000 Biso 7.564065
H554  H  0.348300  0.525100  0.620600 1.000000 Biso 9.080036
C476  C  0.415290  0.565600  0.641910 1.000000 Biso 7.082428
C477  C  0.427500  0.532400  0.689200 1.000000 Biso 7.864101
H555  H  0.408000  0.501000  0.695000 1.000000 Biso 9.474820
C478  C  0.472100  0.510700  0.768930 1.000000 Biso 8.061493
H556  H  0.446800  0.480500  0.767500 1.000000 Biso 9.711691
C479  C  0.461600  0.543300  0.820100 1.000000 Biso 13.106835
H557  H  0.424600  0.555700  0.820200 1.000000 Biso 15.712410
H558  H  0.484900  0.574500  0.820600 1.000000 Biso 15.712410
C480  C  0.472000  0.508800  0.870400 1.000000 Biso 17.844245
H559  H  0.464700  0.529600  0.902500 1.000000 Biso 21.476259
H560  H  0.448400  0.477700  0.870400 1.000000 Biso 21.476259
N81  N  0.222080  0.036500  0.454860 1.000000 Biso 8.132554
C481  C  0.111060  0.129600  0.446300 1.000000 Biso 7.564065
H561  H  0.120600  0.151700  0.474900 1.000000 Biso 9.080036
C482  C  0.141910  0.084710  0.434400 1.000000 Biso 7.082428
C483  C  0.189200  0.072500  0.467600 1.000000 Biso 7.864101
H562  H  0.195000  0.092000  0.499000 1.000000 Biso 9.474820
C484  C  0.268930  0.027900  0.489300 1.000000 Biso 8.061493
H563  H  0.267500  0.053200  0.519500 1.000000 Biso 9.711691
C485  C  0.320100  0.038400  0.456700 1.000000 Biso 13.106835
H564  H  0.320200  0.075400  0.444300 1.000000 Biso 15.712410
H565  H  0.320600  0.015100  0.425500 1.000000 Biso 15.712410
C486  C  0.370400  0.028000  0.491200 1.000000 Biso 17.844245
H566  H  0.402500  0.035300  0.470400 1.000000 Biso 21.476259
H567  H  0.370400  0.051600  0.522300 1.000000 Biso 21.476259
N82  N  0.722080  0.963500  0.045140 1.000000 Biso 8.132554
C487  C  0.611060  0.870400  0.053700 1.000000 Biso 7.564065
H568  H  0.620600  0.848300  0.025100 1.000000 Biso 9.080036
C488  C  0.641910  0.915290  0.065600 1.000000 Biso 7.082428
C489  C  0.689200  0.927500  0.032400 1.000000 Biso 7.864101
H569  H  0.695000  0.908000  0.001000 1.000000 Biso 9.474820
C490  C  0.768930  0.972100  0.010700 1.000000 Biso 8.061493
H570  H  0.767500  0.946800  0.980500 1.000000 Biso 9.711691
C491  C  0.820100  0.961600  0.043300 1.000000 Biso 13.106835
H571  H  0.820200  0.924600  0.055700 1.000000 Biso 15.712410
H572  H  0.820600  0.984900  0.074500 1.000000 Biso 15.712410
C492  C  0.870400  0.972000  0.008800 1.000000 Biso 17.844245
H573  H  0.902500  0.964700  0.029600 1.000000 Biso 21.476259
H574  H  0.870400  0.948400  0.977700 1.000000 Biso 21.476259
N83  N  0.777920  0.463500  0.954860 1.000000 Biso 8.132554
C493  C  0.888940  0.370400  0.946300 1.000000 Biso 7.564065
H575  H  0.879400  0.348300  0.974900 1.000000 Biso 9.080036
C494  C  0.858090  0.415290  0.934400 1.000000 Biso 7.082428
C495  C  0.810800  0.427500  0.967600 1.000000 Biso 7.864101
H576  H  0.805000  0.408000  0.999000 1.000000 Biso 9.474820
C496  C  0.731070  0.472100  0.989300 1.000000 Biso 8.061493
H577  H  0.732500  0.446800  0.019500 1.000000 Biso 9.711691
C497  C  0.679900  0.461600  0.956700 1.000000 Biso 13.106835
H578  H  0.679800  0.424600  0.944300 1.000000 Biso 15.712410
H579  H  0.679400  0.484900  0.925500 1.000000 Biso 15.712410
C498  C  0.629600  0.472000  0.991200 1.000000 Biso 17.844245
H580  H  0.597500  0.464700  0.970400 1.000000 Biso 21.476259
H581  H  0.629600  0.448400  0.022300 1.000000 Biso 21.476259
N84  N  0.277920  0.536500  0.545140 1.000000 Biso 8.132554
C499  C  0.388940  0.629600  0.553700 1.000000 Biso 7.564065
H582  H  0.379400  0.651700  0.525100 1.000000 Biso 9.080036
C500  C  0.358090  0.584710  0.565600 1.000000 Biso 7.082428
C501  C  0.310800  0.572500  0.532400 1.000000 Biso 7.864101
H583  H  0.305000  0.592000  0.501000 1.000000 Biso 9.474820
C502  C  0.231070  0.527900  0.510700 1.000000 Biso 8.061493
H584  H  0.232500  0.553200  0.480500 1.000000 Biso 9.711691
C503  C  0.179900  0.538400  0.543300 1.000000 Biso 13.106835
H585  H  0.179800  0.575400  0.555700 1.000000 Biso 15.712410
H586  H  0.179400  0.515100  0.574500 1.000000 Biso 15.712410
C504  C  0.129600  0.528000  0.508800 1.000000 Biso 17.844245
H587  H  0.097500  0.535300  0.529600 1.000000 Biso 21.476259
H588  H  0.129600  0.551600  0.477700 1.000000 Biso 21.476259
N85  N  0.213500  0.472080  0.704860 1.000000 Biso 8.132554
C505  C  0.120400  0.361060  0.696300 1.000000 Biso 7.564065
H589  H  0.098300  0.370600  0.724900 1.000000 Biso 9.080036
C506  C  0.165290  0.391910  0.684400 1.000000 Biso 7.082428
C507  C  0.177500  0.439200  0.717600 1.000000 Biso 7.864101
H590  H  0.158000  0.445000  0.749000 1.000000 Biso 9.474820
C508  C  0.222100  0.518930  0.739300 1.000000 Biso 8.061493
H591  H  0.196800  0.517500  0.769500 1.000000 Biso 9.711691
C509  C  0.211600  0.570100  0.706700 1.000000 Biso 13.106835
H592  H  0.174600  0.570200  0.694300 1.000000 Biso 15.712410
H593  H  0.234900  0.570600  0.675500 1.000000 Biso 15.712410
C510  C  0.222000  0.620400  0.741200 1.000000 Biso 17.844245
H594  H  0.214700  0.652500  0.720400 1.000000 Biso 21.476259
H595  H  0.198400  0.620400  0.772300 1.000000 Biso 21.476259
N86  N  0.286500  0.972080  0.295140 1.000000 Biso 8.132554
C511  C  0.379600  0.861060  0.303700 1.000000 Biso 7.564065
H596  H  0.401700  0.870600  0.275100 1.000000 Biso 9.080036
C512  C  0.334710  0.891910  0.315600 1.000000 Biso 7.082428
C513  C  0.322500  0.939200  0.282400 1.000000 Biso 7.864101
H597  H  0.342000  0.945000  0.251000 1.000000 Biso 9.474820
C514  C  0.277900  0.018930  0.260700 1.000000 Biso 8.061493
H598  H  0.303200  0.017500  0.230500 1.000000 Biso 9.711691
C515  C  0.288400  0.070100  0.293300 1.000000 Biso 13.106835
H599  H  0.325400  0.070200  0.305700 1.000000 Biso 15.712410
H600  H  0.265100  0.070600  0.324500 1.000000 Biso 15.712410
C516  C  0.278000  0.120400  0.258800 1.000000 Biso 17.844245
H601  H  0.285300  0.152500  0.279600 1.000000 Biso 21.476259
H602  H  0.301600  0.120400  0.227700 1.000000 Biso 21.476259
N87  N  0.786500  0.027920  0.204860 1.000000 Biso 8.132554
C517  C  0.879600  0.138940  0.196300 1.000000 Biso 7.564065
H603  H  0.901700  0.129400  0.224900 1.000000 Biso 9.080036
C518  C  0.834710  0.108090  0.184400 1.000000 Biso 7.082428
C519  C  0.822500  0.060800  0.217600 1.000000 Biso 7.864101
H604  H  0.842000  0.055000  0.249000 1.000000 Biso 9.474820
C520  C  0.777900  0.981070  0.239300 1.000000 Biso 8.061493
H605  H  0.803200  0.982500  0.269500 1.000000 Biso 9.711691
C521  C  0.788400  0.929900  0.206700 1.000000 Biso 13.106835
H606  H  0.825400  0.929800  0.194300 1.000000 Biso 15.712410
H607  H  0.765100  0.929400  0.175500 1.000000 Biso 15.712410
C522  C  0.778000  0.879600  0.241200 1.000000 Biso 17.844245
H608  H  0.785300  0.847500  0.220400 1.000000 Biso 21.476259
H609  H  0.801600  0.879600  0.272300 1.000000 Biso 21.476259
N88  N  0.713500  0.527920  0.795140 1.000000 Biso 8.132554
C523  C  0.620400  0.638940  0.803700 1.000000 Biso 7.564065
H610  H  0.598300  0.629400  0.775100 1.000000 Biso 9.080036
C524  C  0.665290  0.608090  0.815600 1.000000 Biso 7.082428
C525  C  0.677500  0.560800  0.782400 1.000000 Biso 7.864101
H611  H  0.658000  0.555000  0.751000 1.000000 Biso 9.474820
C526  C  0.722100  0.481070  0.760700 1.000000 Biso 8.061493
H612  H  0.696800  0.482500  0.730500 1.000000 Biso 9.711691
C527  C  0.711600  0.429900  0.793300 1.000000 Biso 13.106835
H613  H  0.674600  0.429800  0.805700 1.000000 Biso 15.712410
H614  H  0.734900  0.429400  0.824500 1.000000 Biso 15.712410
C528  C  0.722000  0.379600  0.758800 1.000000 Biso 17.844245
H615  H  0.714700  0.347500  0.779600 1.000000 Biso 21.476259
H616  H  0.698400  0.379600  0.727700 1.000000 Biso 21.476259
N89  N  0.027920  0.295140  0.713500 1.000000 Biso 8.132554
C529  C  0.138940  0.303700  0.620400 1.000000 Biso 7.564065
H617  H  0.129400  0.275100  0.598300 1.000000 Biso 9.080036
C530  C  0.108090  0.315600  0.665290 1.000000 Biso 7.082428
C531  C  0.060800  0.282400  0.677500 1.000000 Biso 7.864101
H618  H  0.055000  0.251000  0.658000 1.000000 Biso 9.474820
C532  C  0.981070  0.260700  0.722100 1.000000 Biso 8.061493
H619  H  0.982500  0.230500  0.696800 1.000000 Biso 9.711691
C533  C  0.929900  0.293300  0.711600 1.000000 Biso 13.106835
H620  H  0.929800  0.305700  0.674600 1.000000 Biso 15.712410
H621  H  0.929400  0.324500  0.734900 1.000000 Biso 15.712410
C534  C  0.879600  0.258800  0.722000 1.000000 Biso 17.844245
H622  H  0.847500  0.279600  0.714700 1.000000 Biso 21.476259
H623  H  0.879600  0.227700  0.698400 1.000000 Biso 21.476259
N90  N  0.527920  0.704860  0.786500 1.000000 Biso 8.132554
C535  C  0.638940  0.696300  0.879600 1.000000 Biso 7.564065
H624  H  0.629400  0.724900  0.901700 1.000000 Biso 9.080036
C536  C  0.608090  0.684400  0.834710 1.000000 Biso 7.082428
C537  C  0.560800  0.717600  0.822500 1.000000 Biso 7.864101
H625  H  0.555000  0.749000  0.842000 1.000000 Biso 9.474820
C538  C  0.481070  0.739300  0.777900 1.000000 Biso 8.061493
H626  H  0.482500  0.769500  0.803200 1.000000 Biso 9.711691
C539  C  0.429900  0.706700  0.788400 1.000000 Biso 13.106835
H627  H  0.429800  0.694300  0.825400 1.000000 Biso 15.712410
H628  H  0.429400  0.675500  0.765100 1.000000 Biso 15.712410
C540  C  0.379600  0.741200  0.778000 1.000000 Biso 17.844245
H629  H  0.347500  0.720400  0.785300 1.000000 Biso 21.476259
H630  H  0.379600  0.772300  0.801600 1.000000 Biso 21.476259
N91  N  0.472080  0.795140  0.286500 1.000000 Biso 8.132554
C541  C  0.361060  0.803700  0.379600 1.000000 Biso 7.564065
H631  H  0.370600  0.775100  0.401700 1.000000 Biso 9.080036
C542  C  0.391910  0.815600  0.334710 1.000000 Biso 7.082428
C543  C  0.439200  0.782400  0.322500 1.000000 Biso 7.864101
H632  H  0.445000  0.751000  0.342000 1.000000 Biso 9.474820
C544  C  0.518930  0.760700  0.277900 1.000000 Biso 8.061493
H633  H  0.517500  0.730500  0.303200 1.000000 Biso 9.711691
C545  C  0.570100  0.793300  0.288400 1.000000 Biso 13.106835
H634  H  0.570200  0.805700  0.325400 1.000000 Biso 15.712410
H635  H  0.570600  0.824500  0.265100 1.000000 Biso 15.712410
C546  C  0.620400  0.758800  0.278000 1.000000 Biso 17.844245
H636  H  0.652500  0.779600  0.285300 1.000000 Biso 21.476259
H637  H  0.620400  0.727700  0.301600 1.000000 Biso 21.476259
N92  N  0.972080  0.204860  0.213500 1.000000 Biso 8.132554
C547  C  0.861060  0.196300  0.120400 1.000000 Biso 7.564065
H638  H  0.870600  0.224900  0.098300 1.000000 Biso 9.080036
C548  C  0.891910  0.184400  0.165290 1.000000 Biso 7.082428
C549  C  0.939200  0.217600  0.177500 1.000000 Biso 7.864101
H639  H  0.945000  0.249000  0.158000 1.000000 Biso 9.474820
C550  C  0.018930  0.239300  0.222100 1.000000 Biso 8.061493
H640  H  0.017500  0.269500  0.196800 1.000000 Biso 9.711691
C551  C  0.070100  0.206700  0.211600 1.000000 Biso 13.106835
H641  H  0.070200  0.194300  0.174600 1.000000 Biso 15.712410
H642  H  0.070600  0.175500  0.234900 1.000000 Biso 15.712410
C552  C  0.120400  0.241200  0.222000 1.000000 Biso 17.844245
H643  H  0.152500  0.220400  0.214700 1.000000 Biso 21.476259
H644  H  0.120400  0.272300  0.198400 1.000000 Biso 21.476259
N93  N  0.704860  0.713500  0.972080 1.000000 Biso 8.132554
C553  C  0.696300  0.620400  0.861060 1.000000 Biso 7.564065
H645  H  0.724900  0.598300  0.870600 1.000000 Biso 9.080036
C554  C  0.684400  0.665290  0.891910 1.000000 Biso 7.082428
C555  C  0.717600  0.677500  0.939200 1.000000 Biso 7.864101
H646  H  0.749000  0.658000  0.945000 1.000000 Biso 9.474820
C556  C  0.739300  0.722100  0.018930 1.000000 Biso 8.061493
H647  H  0.769500  0.696800  0.017500 1.000000 Biso 9.711691
C557  C  0.706700  0.711600  0.070100 1.000000 Biso 13.106835
H648  H  0.694300  0.674600  0.070200 1.000000 Biso 15.712410
H649  H  0.675500  0.734900  0.070600 1.000000 Biso 15.712410
C558  C  0.741200  0.722000  0.120400 1.000000 Biso 17.844245
H650  H  0.720400  0.714700  0.152500 1.000000 Biso 21.476259
H651  H  0.772300  0.698400  0.120400 1.000000 Biso 21.476259
N94  N  0.295140  0.786500  0.472080 1.000000 Biso 8.132554
C559  C  0.303700  0.879600  0.361060 1.000000 Biso 7.564065
H652  H  0.275100  0.901700  0.370600 1.000000 Biso 9.080036
C560  C  0.315600  0.834710  0.391910 1.000000 Biso 7.082428
C561  C  0.282400  0.822500  0.439200 1.000000 Biso 7.864101
H653  H  0.251000  0.842000  0.445000 1.000000 Biso 9.474820
C562  C  0.260700  0.777900  0.518930 1.000000 Biso 8.061493
H654  H  0.230500  0.803200  0.517500 1.000000 Biso 9.711691
C563  C  0.293300  0.788400  0.570100 1.000000 Biso 13.106835
H655  H  0.305700  0.825400  0.570200 1.000000 Biso 15.712410
H656  H  0.324500  0.765100  0.570600 1.000000 Biso 15.712410
C564  C  0.258800  0.778000  0.620400 1.000000 Biso 17.844245
H657  H  0.279600  0.785300  0.652500 1.000000 Biso 21.476259
H658  H  0.227700  0.801600  0.620400 1.000000 Biso 21.476259
N95  N  0.204860  0.286500  0.527920 1.000000 Biso 8.132554
C565  C  0.196300  0.379600  0.638940 1.000000 Biso 7.564065
H659  H  0.224900  0.401700  0.629400 1.000000 Biso 9.080036
C566  C  0.184400  0.334710  0.608090 1.000000 Biso 7.082428
C567  C  0.217600  0.322500  0.560800 1.000000 Biso 7.864101
H660  H  0.249000  0.342000  0.555000 1.000000 Biso 9.474820
C568  C  0.239300  0.277900  0.481070 1.000000 Biso 8.061493
H661  H  0.269500  0.303200  0.482500 1.000000 Biso 9.711691
C569  C  0.206700  0.288400  0.429900 1.000000 Biso 13.106835
H662  H  0.194300  0.325400  0.429800 1.000000 Biso 15.712410
H663  H  0.175500  0.265100  0.429400 1.000000 Biso 15.712410
C570  C  0.241200  0.278000  0.379600 1.000000 Biso 17.844245
H664  H  0.220400  0.285300  0.347500 1.000000 Biso 21.476259
H665  H  0.272300  0.301600  0.379600 1.000000 Biso 21.476259
N96  N  0.795140  0.213500  0.027920 1.000000 Biso 8.132554
C571  C  0.803700  0.120400  0.138940 1.000000 Biso 7.564065
H666  H  0.775100  0.098300  0.129400 1.000000 Biso 9.080036
C572  C  0.815600  0.165290  0.108090 1.000000 Biso 7.082428
C573  C  0.782400  0.177500  0.060800 1.000000 Biso 7.864101
H667  H  0.751000  0.158000  0.055000 1.000000 Biso 9.474820
C574  C  0.760700  0.222100  0.981070 1.000000 Biso 8.061493
H668  H  0.730500  0.196800  0.982500 1.000000 Biso 9.711691
C575  C  0.793300  0.211600  0.929900 1.000000 Biso 13.106835
H669  H  0.805700  0.174600  0.929800 1.000000 Biso 15.712410
H670  H  0.824500  0.234900  0.929400 1.000000 Biso 15.712410
C576  C  0.758800  0.222000  0.879600 1.000000 Biso 17.844245
H671  H  0.779600  0.214700  0.847500 1.000000 Biso 21.476259
H672  H  0.727700  0.198400  0.879600 1.000000 Biso 21.476259
